
---------- Begin Simulation Statistics ----------
final_tick                               1904247544700                       # Number of ticks from beginning of simulation (restored from checkpoints and never reset)
host_inst_rate                                 595416                       # Simulator instruction rate (inst/s)
host_mem_usage                               17321760                       # Number of bytes of host memory used
host_op_rate                                   695247                       # Simulator op (including micro ops) rate (op/s)
host_seconds                                  2143.97                       # Real time elapsed on the host
host_tick_rate                              888187889                       # Simulator tick rate (ticks/s)
sim_freq                                 1000000000000                       # Frequency of simulated ticks
sim_insts                                  1276554566                       # Number of instructions simulated
sim_ops                                    1490588034                       # Number of ops (including micro ops) simulated
sim_seconds                                  1.904248                       # Number of seconds simulated
sim_ticks                                1904247544700                       # Number of ticks simulated
system.cpu0.Branches                        163091989                       # Number of branches fetched
system.cpu0.committedInsts                  705059550                       # Number of instructions committed
system.cpu0.committedOps                    815128792                       # Number of ops (including micro ops) committed
system.cpu0.dtb.accesses                    260537108                       # DTB accesses
system.cpu0.dtb.align_faults                        0                       # Number of TLB faults due to alignment restrictions
system.cpu0.dtb.domain_faults                       0                       # Number of TLB faults due to domain restrictions
system.cpu0.dtb.flush_entries                   10458                       # Number of entries that have been flushed from TLB
system.cpu0.dtb.flush_tlb                          16                       # Number of times complete TLB was flushed
system.cpu0.dtb.flush_tlb_asid                    498                       # Number of times TLB was flushed by ASID
system.cpu0.dtb.flush_tlb_mva                    1467                       # Number of times TLB was flushed by MVA
system.cpu0.dtb.flush_tlb_mva_asid              57538                       # Number of times TLB was flushed by MVA & ASID
system.cpu0.dtb.hits                        260318365                       # DTB hits
system.cpu0.dtb.inst_accesses                       0                       # ITB inst accesses
system.cpu0.dtb.inst_hits                           0                       # ITB inst hits
system.cpu0.dtb.inst_misses                         0                       # ITB inst misses
system.cpu0.dtb.misses                         218743                       # DTB misses
system.cpu0.dtb.perms_faults                     4480                       # Number of TLB faults due to permissions restrictions
system.cpu0.dtb.prefetch_faults                 43095                       # Number of TLB faults due to prefetch
system.cpu0.dtb.read_accesses               131065829                       # DTB read accesses
system.cpu0.dtb.read_hits                   130875320                       # DTB read hits
system.cpu0.dtb.read_misses                    190509                       # DTB read misses
system.cpu0.dtb.stage2_mmu.stage2_tlb.accesses            0                       # DTB accesses
system.cpu0.dtb.stage2_mmu.stage2_tlb.align_faults            0                       # Number of TLB faults due to alignment restrictions
system.cpu0.dtb.stage2_mmu.stage2_tlb.domain_faults            0                       # Number of TLB faults due to domain restrictions
system.cpu0.dtb.stage2_mmu.stage2_tlb.flush_entries            0                       # Number of entries that have been flushed from TLB
system.cpu0.dtb.stage2_mmu.stage2_tlb.flush_tlb            0                       # Number of times complete TLB was flushed
system.cpu0.dtb.stage2_mmu.stage2_tlb.flush_tlb_asid            0                       # Number of times TLB was flushed by ASID
system.cpu0.dtb.stage2_mmu.stage2_tlb.flush_tlb_mva            0                       # Number of times TLB was flushed by MVA
system.cpu0.dtb.stage2_mmu.stage2_tlb.flush_tlb_mva_asid            0                       # Number of times TLB was flushed by MVA & ASID
system.cpu0.dtb.stage2_mmu.stage2_tlb.hits            0                       # DTB hits
system.cpu0.dtb.stage2_mmu.stage2_tlb.inst_accesses            0                       # ITB inst accesses
system.cpu0.dtb.stage2_mmu.stage2_tlb.inst_hits            0                       # ITB inst hits
system.cpu0.dtb.stage2_mmu.stage2_tlb.inst_misses            0                       # ITB inst misses
system.cpu0.dtb.stage2_mmu.stage2_tlb.misses            0                       # DTB misses
system.cpu0.dtb.stage2_mmu.stage2_tlb.perms_faults            0                       # Number of TLB faults due to permissions restrictions
system.cpu0.dtb.stage2_mmu.stage2_tlb.prefetch_faults            0                       # Number of TLB faults due to prefetch
system.cpu0.dtb.stage2_mmu.stage2_tlb.read_accesses            0                       # DTB read accesses
system.cpu0.dtb.stage2_mmu.stage2_tlb.read_hits            0                       # DTB read hits
system.cpu0.dtb.stage2_mmu.stage2_tlb.read_misses            0                       # DTB read misses
system.cpu0.dtb.stage2_mmu.stage2_tlb.walker.walkRequestOrigin_Requested::Data            0                       # Table walker requests started/completed, data/inst
system.cpu0.dtb.stage2_mmu.stage2_tlb.walker.walkRequestOrigin_Requested::Inst            0                       # Table walker requests started/completed, data/inst
system.cpu0.dtb.stage2_mmu.stage2_tlb.walker.walkRequestOrigin_Requested::total            0                       # Table walker requests started/completed, data/inst
system.cpu0.dtb.stage2_mmu.stage2_tlb.walker.walkRequestOrigin_Completed::Data            0                       # Table walker requests started/completed, data/inst
system.cpu0.dtb.stage2_mmu.stage2_tlb.walker.walkRequestOrigin_Completed::Inst            0                       # Table walker requests started/completed, data/inst
system.cpu0.dtb.stage2_mmu.stage2_tlb.walker.walkRequestOrigin_Completed::total            0                       # Table walker requests started/completed, data/inst
system.cpu0.dtb.stage2_mmu.stage2_tlb.walker.walkRequestOrigin::total            0                       # Table walker requests started/completed, data/inst
system.cpu0.dtb.stage2_mmu.stage2_tlb.walker.walks            0                       # Table walker walks requested
system.cpu0.dtb.stage2_mmu.stage2_tlb.write_accesses            0                       # DTB write accesses
system.cpu0.dtb.stage2_mmu.stage2_tlb.write_hits            0                       # DTB write hits
system.cpu0.dtb.stage2_mmu.stage2_tlb.write_misses            0                       # DTB write misses
system.cpu0.dtb.walker.walkPageSizes::4K       206329     97.32%     97.32% # Table walker page sizes translated
system.cpu0.dtb.walker.walkPageSizes::2M         3725      1.76%     99.08% # Table walker page sizes translated
system.cpu0.dtb.walker.walkPageSizes::1G         1960      0.92%    100.00% # Table walker page sizes translated
system.cpu0.dtb.walker.walkPageSizes::total       212014                       # Table walker page sizes translated
system.cpu0.dtb.walker.walkRequestOrigin_Requested::Data       218743                       # Table walker requests started/completed, data/inst
system.cpu0.dtb.walker.walkRequestOrigin_Requested::Inst            0                       # Table walker requests started/completed, data/inst
system.cpu0.dtb.walker.walkRequestOrigin_Requested::total       218743                       # Table walker requests started/completed, data/inst
system.cpu0.dtb.walker.walkRequestOrigin_Completed::Data       212014                       # Table walker requests started/completed, data/inst
system.cpu0.dtb.walker.walkRequestOrigin_Completed::Inst            0                       # Table walker requests started/completed, data/inst
system.cpu0.dtb.walker.walkRequestOrigin_Completed::total       212014                       # Table walker requests started/completed, data/inst
system.cpu0.dtb.walker.walkRequestOrigin::total       430757                       # Table walker requests started/completed, data/inst
system.cpu0.dtb.walker.walkWaitTime::samples       218743                       # Table walker wait (enqueue to first request) latency
system.cpu0.dtb.walker.walkWaitTime::0         218743    100.00%    100.00% # Table walker wait (enqueue to first request) latency
system.cpu0.dtb.walker.walkWaitTime::total       218743                       # Table walker wait (enqueue to first request) latency
system.cpu0.dtb.walker.walks                   218743                       # Table walker walks requested
system.cpu0.dtb.walker.walksLong               218743                       # Table walker walks initiated with long descriptors
system.cpu0.dtb.walker.walksPending::samples     13866080                       # Table walker pending requests distribution
system.cpu0.dtb.walker.walksPending::0       13866080    100.00%    100.00% # Table walker pending requests distribution
system.cpu0.dtb.walker.walksPending::total     13866080                       # Table walker pending requests distribution
system.cpu0.dtb.write_accesses              129471279                       # DTB write accesses
system.cpu0.dtb.write_hits                  129443045                       # DTB write hits
system.cpu0.dtb.write_misses                    28234                       # DTB write misses
system.cpu0.idle_fraction                    0.323642                       # Percentage of idle cycles
system.cpu0.itb.accesses                    705026628                       # DTB accesses
system.cpu0.itb.align_faults                        0                       # Number of TLB faults due to alignment restrictions
system.cpu0.itb.domain_faults                       0                       # Number of TLB faults due to domain restrictions
system.cpu0.itb.flush_entries                    4362                       # Number of entries that have been flushed from TLB
system.cpu0.itb.flush_tlb                          16                       # Number of times complete TLB was flushed
system.cpu0.itb.flush_tlb_asid                    498                       # Number of times TLB was flushed by ASID
system.cpu0.itb.flush_tlb_mva                    1467                       # Number of times TLB was flushed by MVA
system.cpu0.itb.flush_tlb_mva_asid              57538                       # Number of times TLB was flushed by MVA & ASID
system.cpu0.itb.hits                        704429323                       # DTB hits
system.cpu0.itb.inst_accesses               705026628                       # ITB inst accesses
system.cpu0.itb.inst_hits                   704429323                       # ITB inst hits
system.cpu0.itb.inst_misses                    597305                       # ITB inst misses
system.cpu0.itb.misses                         597305                       # DTB misses
system.cpu0.itb.perms_faults                        0                       # Number of TLB faults due to permissions restrictions
system.cpu0.itb.prefetch_faults                     0                       # Number of TLB faults due to prefetch
system.cpu0.itb.read_accesses                       0                       # DTB read accesses
system.cpu0.itb.read_hits                           0                       # DTB read hits
system.cpu0.itb.read_misses                         0                       # DTB read misses
system.cpu0.itb.stage2_mmu.stage2_tlb.accesses            0                       # DTB accesses
system.cpu0.itb.stage2_mmu.stage2_tlb.align_faults            0                       # Number of TLB faults due to alignment restrictions
system.cpu0.itb.stage2_mmu.stage2_tlb.domain_faults            0                       # Number of TLB faults due to domain restrictions
system.cpu0.itb.stage2_mmu.stage2_tlb.flush_entries            0                       # Number of entries that have been flushed from TLB
system.cpu0.itb.stage2_mmu.stage2_tlb.flush_tlb            0                       # Number of times complete TLB was flushed
system.cpu0.itb.stage2_mmu.stage2_tlb.flush_tlb_asid            0                       # Number of times TLB was flushed by ASID
system.cpu0.itb.stage2_mmu.stage2_tlb.flush_tlb_mva            0                       # Number of times TLB was flushed by MVA
system.cpu0.itb.stage2_mmu.stage2_tlb.flush_tlb_mva_asid            0                       # Number of times TLB was flushed by MVA & ASID
system.cpu0.itb.stage2_mmu.stage2_tlb.hits            0                       # DTB hits
system.cpu0.itb.stage2_mmu.stage2_tlb.inst_accesses            0                       # ITB inst accesses
system.cpu0.itb.stage2_mmu.stage2_tlb.inst_hits            0                       # ITB inst hits
system.cpu0.itb.stage2_mmu.stage2_tlb.inst_misses            0                       # ITB inst misses
system.cpu0.itb.stage2_mmu.stage2_tlb.misses            0                       # DTB misses
system.cpu0.itb.stage2_mmu.stage2_tlb.perms_faults            0                       # Number of TLB faults due to permissions restrictions
system.cpu0.itb.stage2_mmu.stage2_tlb.prefetch_faults            0                       # Number of TLB faults due to prefetch
system.cpu0.itb.stage2_mmu.stage2_tlb.read_accesses            0                       # DTB read accesses
system.cpu0.itb.stage2_mmu.stage2_tlb.read_hits            0                       # DTB read hits
system.cpu0.itb.stage2_mmu.stage2_tlb.read_misses            0                       # DTB read misses
system.cpu0.itb.stage2_mmu.stage2_tlb.walker.walkRequestOrigin_Requested::Data            0                       # Table walker requests started/completed, data/inst
system.cpu0.itb.stage2_mmu.stage2_tlb.walker.walkRequestOrigin_Requested::Inst            0                       # Table walker requests started/completed, data/inst
system.cpu0.itb.stage2_mmu.stage2_tlb.walker.walkRequestOrigin_Requested::total            0                       # Table walker requests started/completed, data/inst
system.cpu0.itb.stage2_mmu.stage2_tlb.walker.walkRequestOrigin_Completed::Data            0                       # Table walker requests started/completed, data/inst
system.cpu0.itb.stage2_mmu.stage2_tlb.walker.walkRequestOrigin_Completed::Inst            0                       # Table walker requests started/completed, data/inst
system.cpu0.itb.stage2_mmu.stage2_tlb.walker.walkRequestOrigin_Completed::total            0                       # Table walker requests started/completed, data/inst
system.cpu0.itb.stage2_mmu.stage2_tlb.walker.walkRequestOrigin::total            0                       # Table walker requests started/completed, data/inst
system.cpu0.itb.stage2_mmu.stage2_tlb.walker.walks            0                       # Table walker walks requested
system.cpu0.itb.stage2_mmu.stage2_tlb.write_accesses            0                       # DTB write accesses
system.cpu0.itb.stage2_mmu.stage2_tlb.write_hits            0                       # DTB write hits
system.cpu0.itb.stage2_mmu.stage2_tlb.write_misses            0                       # DTB write misses
system.cpu0.itb.walker.walkPageSizes::4K       589214     99.00%     99.00% # Table walker page sizes translated
system.cpu0.itb.walker.walkPageSizes::2M         5929      1.00%    100.00% # Table walker page sizes translated
system.cpu0.itb.walker.walkPageSizes::total       595143                       # Table walker page sizes translated
system.cpu0.itb.walker.walkRequestOrigin_Requested::Data            0                       # Table walker requests started/completed, data/inst
system.cpu0.itb.walker.walkRequestOrigin_Requested::Inst       597305                       # Table walker requests started/completed, data/inst
system.cpu0.itb.walker.walkRequestOrigin_Requested::total       597305                       # Table walker requests started/completed, data/inst
system.cpu0.itb.walker.walkRequestOrigin_Completed::Data            0                       # Table walker requests started/completed, data/inst
system.cpu0.itb.walker.walkRequestOrigin_Completed::Inst       595143                       # Table walker requests started/completed, data/inst
system.cpu0.itb.walker.walkRequestOrigin_Completed::total       595143                       # Table walker requests started/completed, data/inst
system.cpu0.itb.walker.walkRequestOrigin::total      1192448                       # Table walker requests started/completed, data/inst
system.cpu0.itb.walker.walkWaitTime::samples       597305                       # Table walker wait (enqueue to first request) latency
system.cpu0.itb.walker.walkWaitTime::0         597305    100.00%    100.00% # Table walker wait (enqueue to first request) latency
system.cpu0.itb.walker.walkWaitTime::total       597305                       # Table walker wait (enqueue to first request) latency
system.cpu0.itb.walker.walks                   597305                       # Table walker walks requested
system.cpu0.itb.walker.walksLong               597305                       # Table walker walks initiated with long descriptors
system.cpu0.itb.walker.walksPending::samples     13858180                       # Table walker pending requests distribution
system.cpu0.itb.walker.walksPending::0       13858180    100.00%    100.00% # Table walker pending requests distribution
system.cpu0.itb.walker.walksPending::total     13858180                       # Table walker pending requests distribution
system.cpu0.itb.write_accesses                      0                       # DTB write accesses
system.cpu0.itb.write_hits                          0                       # DTB write hits
system.cpu0.itb.write_misses                        0                       # DTB write misses
system.cpu0.kern.inst.arm                           0                       # number of arm instructions executed
system.cpu0.kern.inst.quiesce                    3104                       # number of quiesce instructions executed
system.cpu0.not_idle_fraction                0.676358                       # Percentage of non-idle cycles
system.cpu0.numCycles                      1205223070                       # number of cpu cycles simulated
system.cpu0.numWorkItemsCompleted                   0                       # number of work items this cpu completed
system.cpu0.numWorkItemsStarted                     0                       # number of work items this cpu started
system.cpu0.num_busy_cycles              815162414.664965                       # Number of busy cycles
system.cpu0.num_cc_register_reads           193208680                       # number of times the CC registers were read
system.cpu0.num_cc_register_writes          191170213                       # number of times the CC registers were written
system.cpu0.num_conditional_control_insts    102839871                       # number of instructions that are conditional controls
system.cpu0.num_fp_alu_accesses                     0                       # Number of float alu accesses
system.cpu0.num_fp_insts                            0                       # number of float instructions
system.cpu0.num_fp_register_reads                   0                       # number of times the floating registers were read
system.cpu0.num_fp_register_writes                  0                       # number of times the floating registers were written
system.cpu0.num_func_calls                   38585607                       # number of times a function call or return occured
system.cpu0.num_idle_cycles              390060655.335035                       # Number of idle cycles
system.cpu0.num_int_alu_accesses            733023197                       # Number of integer alu accesses
system.cpu0.num_int_insts                   733023197                       # number of integer instructions
system.cpu0.num_int_register_reads          996285930                       # number of times the integer registers were read
system.cpu0.num_int_register_writes         559591435                       # number of times the integer registers were written
system.cpu0.num_load_insts                  130931726                       # Number of load instructions
system.cpu0.num_mem_refs                    260403807                       # number of memory refs
system.cpu0.num_store_insts                 129472081                       # Number of store instructions
system.cpu0.num_vec_alu_accesses               758669                       # Number of vector alu accesses
system.cpu0.num_vec_insts                      758669                       # number of vector instructions
system.cpu0.num_vec_register_reads             544069                       # number of times the vector registers were read
system.cpu0.num_vec_register_writes            254754                       # number of times the vector registers were written
system.cpu0.op_class::No_OpClass               104601      0.01%      0.01% # Class of executed instruction
system.cpu0.op_class::IntAlu                549475445     67.41%     67.42% # Class of executed instruction
system.cpu0.op_class::IntMult                 4948868      0.61%     68.03% # Class of executed instruction
system.cpu0.op_class::IntDiv                    71950      0.01%     68.04% # Class of executed instruction
system.cpu0.op_class::FloatAdd                      4      0.00%     68.04% # Class of executed instruction
system.cpu0.op_class::FloatCmp                     16      0.00%     68.04% # Class of executed instruction
system.cpu0.op_class::FloatCvt                      7      0.00%     68.04% # Class of executed instruction
system.cpu0.op_class::FloatMult                     0      0.00%     68.04% # Class of executed instruction
system.cpu0.op_class::FloatMultAcc                  0      0.00%     68.04% # Class of executed instruction
system.cpu0.op_class::FloatDiv                      0      0.00%     68.04% # Class of executed instruction
system.cpu0.op_class::FloatMisc                154902      0.02%     68.05% # Class of executed instruction
system.cpu0.op_class::FloatSqrt                     0      0.00%     68.05% # Class of executed instruction
system.cpu0.op_class::SimdAdd                       5      0.00%     68.05% # Class of executed instruction
system.cpu0.op_class::SimdAddAcc                    0      0.00%     68.05% # Class of executed instruction
system.cpu0.op_class::SimdAlu                       4      0.00%     68.05% # Class of executed instruction
system.cpu0.op_class::SimdCmp                       4      0.00%     68.05% # Class of executed instruction
system.cpu0.op_class::SimdCvt                       0      0.00%     68.05% # Class of executed instruction
system.cpu0.op_class::SimdMisc                      4      0.00%     68.05% # Class of executed instruction
system.cpu0.op_class::SimdMult                      0      0.00%     68.05% # Class of executed instruction
system.cpu0.op_class::SimdMultAcc                   0      0.00%     68.05% # Class of executed instruction
system.cpu0.op_class::SimdShift                     0      0.00%     68.05% # Class of executed instruction
system.cpu0.op_class::SimdShiftAcc                  0      0.00%     68.05% # Class of executed instruction
system.cpu0.op_class::SimdDiv                       0      0.00%     68.05% # Class of executed instruction
system.cpu0.op_class::SimdSqrt                      0      0.00%     68.05% # Class of executed instruction
system.cpu0.op_class::SimdFloatAdd                  0      0.00%     68.05% # Class of executed instruction
system.cpu0.op_class::SimdFloatAlu                  0      0.00%     68.05% # Class of executed instruction
system.cpu0.op_class::SimdFloatCmp                  0      0.00%     68.05% # Class of executed instruction
system.cpu0.op_class::SimdFloatCvt                  0      0.00%     68.05% # Class of executed instruction
system.cpu0.op_class::SimdFloatDiv                  0      0.00%     68.05% # Class of executed instruction
system.cpu0.op_class::SimdFloatMisc                 0      0.00%     68.05% # Class of executed instruction
system.cpu0.op_class::SimdFloatMult                 0      0.00%     68.05% # Class of executed instruction
system.cpu0.op_class::SimdFloatMultAcc              0      0.00%     68.05% # Class of executed instruction
system.cpu0.op_class::SimdFloatSqrt                 0      0.00%     68.05% # Class of executed instruction
system.cpu0.op_class::SimdReduceAdd                 0      0.00%     68.05% # Class of executed instruction
system.cpu0.op_class::SimdReduceAlu                 0      0.00%     68.05% # Class of executed instruction
system.cpu0.op_class::SimdReduceCmp                 0      0.00%     68.05% # Class of executed instruction
system.cpu0.op_class::SimdFloatReduceAdd            0      0.00%     68.05% # Class of executed instruction
system.cpu0.op_class::SimdFloatReduceCmp            0      0.00%     68.05% # Class of executed instruction
system.cpu0.op_class::SimdAes                       0      0.00%     68.05% # Class of executed instruction
system.cpu0.op_class::SimdAesMix                    0      0.00%     68.05% # Class of executed instruction
system.cpu0.op_class::SimdSha1Hash                  0      0.00%     68.05% # Class of executed instruction
system.cpu0.op_class::SimdSha1Hash2                 0      0.00%     68.05% # Class of executed instruction
system.cpu0.op_class::SimdSha256Hash                0      0.00%     68.05% # Class of executed instruction
system.cpu0.op_class::SimdSha256Hash2               0      0.00%     68.05% # Class of executed instruction
system.cpu0.op_class::SimdShaSigma2                 0      0.00%     68.05% # Class of executed instruction
system.cpu0.op_class::SimdShaSigma3                 0      0.00%     68.05% # Class of executed instruction
system.cpu0.op_class::SimdPredAlu                   0      0.00%     68.05% # Class of executed instruction
system.cpu0.op_class::MemRead               130931726     16.06%     84.12% # Class of executed instruction
system.cpu0.op_class::MemWrite              129472081     15.88%    100.00% # Class of executed instruction
system.cpu0.op_class::FloatMemRead                  0      0.00%    100.00% # Class of executed instruction
system.cpu0.op_class::FloatMemWrite                 0      0.00%    100.00% # Class of executed instruction
system.cpu0.op_class::IprAccess                     0      0.00%    100.00% # Class of executed instruction
system.cpu0.op_class::InstPrefetch                  0      0.00%    100.00% # Class of executed instruction
system.cpu0.op_class::total                 815159617                       # Class of executed instruction
system.cpu1.Branches                         60841788                       # Number of branches fetched
system.cpu1.committedInsts                  274100357                       # Number of instructions committed
system.cpu1.committedOps                    323328263                       # Number of ops (including micro ops) committed
system.cpu1.dtb.accesses                    108283948                       # DTB accesses
system.cpu1.dtb.align_faults                        0                       # Number of TLB faults due to alignment restrictions
system.cpu1.dtb.domain_faults                       0                       # Number of TLB faults due to domain restrictions
system.cpu1.dtb.flush_entries                   12844                       # Number of entries that have been flushed from TLB
system.cpu1.dtb.flush_tlb                          11                       # Number of times complete TLB was flushed
system.cpu1.dtb.flush_tlb_asid                    498                       # Number of times TLB was flushed by ASID
system.cpu1.dtb.flush_tlb_mva                    1467                       # Number of times TLB was flushed by MVA
system.cpu1.dtb.flush_tlb_mva_asid              57538                       # Number of times TLB was flushed by MVA & ASID
system.cpu1.dtb.hits                        108095466                       # DTB hits
system.cpu1.dtb.inst_accesses                       0                       # ITB inst accesses
system.cpu1.dtb.inst_hits                           0                       # ITB inst hits
system.cpu1.dtb.inst_misses                         0                       # ITB inst misses
system.cpu1.dtb.misses                         188482                       # DTB misses
system.cpu1.dtb.perms_faults                     4543                       # Number of TLB faults due to permissions restrictions
system.cpu1.dtb.prefetch_faults                 41936                       # Number of TLB faults due to prefetch
system.cpu1.dtb.read_accesses                61468836                       # DTB read accesses
system.cpu1.dtb.read_hits                    61304706                       # DTB read hits
system.cpu1.dtb.read_misses                    164130                       # DTB read misses
system.cpu1.dtb.stage2_mmu.stage2_tlb.accesses            0                       # DTB accesses
system.cpu1.dtb.stage2_mmu.stage2_tlb.align_faults            0                       # Number of TLB faults due to alignment restrictions
system.cpu1.dtb.stage2_mmu.stage2_tlb.domain_faults            0                       # Number of TLB faults due to domain restrictions
system.cpu1.dtb.stage2_mmu.stage2_tlb.flush_entries            0                       # Number of entries that have been flushed from TLB
system.cpu1.dtb.stage2_mmu.stage2_tlb.flush_tlb            0                       # Number of times complete TLB was flushed
system.cpu1.dtb.stage2_mmu.stage2_tlb.flush_tlb_asid            0                       # Number of times TLB was flushed by ASID
system.cpu1.dtb.stage2_mmu.stage2_tlb.flush_tlb_mva            0                       # Number of times TLB was flushed by MVA
system.cpu1.dtb.stage2_mmu.stage2_tlb.flush_tlb_mva_asid            0                       # Number of times TLB was flushed by MVA & ASID
system.cpu1.dtb.stage2_mmu.stage2_tlb.hits            0                       # DTB hits
system.cpu1.dtb.stage2_mmu.stage2_tlb.inst_accesses            0                       # ITB inst accesses
system.cpu1.dtb.stage2_mmu.stage2_tlb.inst_hits            0                       # ITB inst hits
system.cpu1.dtb.stage2_mmu.stage2_tlb.inst_misses            0                       # ITB inst misses
system.cpu1.dtb.stage2_mmu.stage2_tlb.misses            0                       # DTB misses
system.cpu1.dtb.stage2_mmu.stage2_tlb.perms_faults            0                       # Number of TLB faults due to permissions restrictions
system.cpu1.dtb.stage2_mmu.stage2_tlb.prefetch_faults            0                       # Number of TLB faults due to prefetch
system.cpu1.dtb.stage2_mmu.stage2_tlb.read_accesses            0                       # DTB read accesses
system.cpu1.dtb.stage2_mmu.stage2_tlb.read_hits            0                       # DTB read hits
system.cpu1.dtb.stage2_mmu.stage2_tlb.read_misses            0                       # DTB read misses
system.cpu1.dtb.stage2_mmu.stage2_tlb.walker.walkRequestOrigin_Requested::Data            0                       # Table walker requests started/completed, data/inst
system.cpu1.dtb.stage2_mmu.stage2_tlb.walker.walkRequestOrigin_Requested::Inst            0                       # Table walker requests started/completed, data/inst
system.cpu1.dtb.stage2_mmu.stage2_tlb.walker.walkRequestOrigin_Requested::total            0                       # Table walker requests started/completed, data/inst
system.cpu1.dtb.stage2_mmu.stage2_tlb.walker.walkRequestOrigin_Completed::Data            0                       # Table walker requests started/completed, data/inst
system.cpu1.dtb.stage2_mmu.stage2_tlb.walker.walkRequestOrigin_Completed::Inst            0                       # Table walker requests started/completed, data/inst
system.cpu1.dtb.stage2_mmu.stage2_tlb.walker.walkRequestOrigin_Completed::total            0                       # Table walker requests started/completed, data/inst
system.cpu1.dtb.stage2_mmu.stage2_tlb.walker.walkRequestOrigin::total            0                       # Table walker requests started/completed, data/inst
system.cpu1.dtb.stage2_mmu.stage2_tlb.walker.walks            0                       # Table walker walks requested
system.cpu1.dtb.stage2_mmu.stage2_tlb.write_accesses            0                       # DTB write accesses
system.cpu1.dtb.stage2_mmu.stage2_tlb.write_hits            0                       # DTB write hits
system.cpu1.dtb.stage2_mmu.stage2_tlb.write_misses            0                       # DTB write misses
system.cpu1.dtb.walker.walkPageSizes::4K       177151     97.67%     97.67% # Table walker page sizes translated
system.cpu1.dtb.walker.walkPageSizes::2M         2746      1.51%     99.18% # Table walker page sizes translated
system.cpu1.dtb.walker.walkPageSizes::1G         1488      0.82%    100.00% # Table walker page sizes translated
system.cpu1.dtb.walker.walkPageSizes::total       181385                       # Table walker page sizes translated
system.cpu1.dtb.walker.walkRequestOrigin_Requested::Data       188482                       # Table walker requests started/completed, data/inst
system.cpu1.dtb.walker.walkRequestOrigin_Requested::Inst            0                       # Table walker requests started/completed, data/inst
system.cpu1.dtb.walker.walkRequestOrigin_Requested::total       188482                       # Table walker requests started/completed, data/inst
system.cpu1.dtb.walker.walkRequestOrigin_Completed::Data       181385                       # Table walker requests started/completed, data/inst
system.cpu1.dtb.walker.walkRequestOrigin_Completed::Inst            0                       # Table walker requests started/completed, data/inst
system.cpu1.dtb.walker.walkRequestOrigin_Completed::total       181385                       # Table walker requests started/completed, data/inst
system.cpu1.dtb.walker.walkRequestOrigin::total       369867                       # Table walker requests started/completed, data/inst
system.cpu1.dtb.walker.walkWaitTime::samples       188482                       # Table walker wait (enqueue to first request) latency
system.cpu1.dtb.walker.walkWaitTime::0         188482    100.00%    100.00% # Table walker wait (enqueue to first request) latency
system.cpu1.dtb.walker.walkWaitTime::total       188482                       # Table walker wait (enqueue to first request) latency
system.cpu1.dtb.walker.walks                   188482                       # Table walker walks requested
system.cpu1.dtb.walker.walksLong               188482                       # Table walker walks initiated with long descriptors
system.cpu1.dtb.walker.walksPending::samples  -1966745100                       # Table walker pending requests distribution
system.cpu1.dtb.walker.walksPending::0    -1966745100    100.00%    100.00% # Table walker pending requests distribution
system.cpu1.dtb.walker.walksPending::total  -1966745100                       # Table walker pending requests distribution
system.cpu1.dtb.write_accesses               46815112                       # DTB write accesses
system.cpu1.dtb.write_hits                   46790760                       # DTB write hits
system.cpu1.dtb.write_misses                    24352                       # DTB write misses
system.cpu1.idle_fraction                    0.731699                       # Percentage of idle cycles
system.cpu1.itb.accesses                    274134610                       # DTB accesses
system.cpu1.itb.align_faults                        0                       # Number of TLB faults due to alignment restrictions
system.cpu1.itb.domain_faults                       0                       # Number of TLB faults due to domain restrictions
system.cpu1.itb.flush_entries                    6833                       # Number of entries that have been flushed from TLB
system.cpu1.itb.flush_tlb                          11                       # Number of times complete TLB was flushed
system.cpu1.itb.flush_tlb_asid                    498                       # Number of times TLB was flushed by ASID
system.cpu1.itb.flush_tlb_mva                    1467                       # Number of times TLB was flushed by MVA
system.cpu1.itb.flush_tlb_mva_asid              57538                       # Number of times TLB was flushed by MVA & ASID
system.cpu1.itb.hits                        273579516                       # DTB hits
system.cpu1.itb.inst_accesses               274134610                       # ITB inst accesses
system.cpu1.itb.inst_hits                   273579516                       # ITB inst hits
system.cpu1.itb.inst_misses                    555094                       # ITB inst misses
system.cpu1.itb.misses                         555094                       # DTB misses
system.cpu1.itb.perms_faults                        0                       # Number of TLB faults due to permissions restrictions
system.cpu1.itb.prefetch_faults                     0                       # Number of TLB faults due to prefetch
system.cpu1.itb.read_accesses                       0                       # DTB read accesses
system.cpu1.itb.read_hits                           0                       # DTB read hits
system.cpu1.itb.read_misses                         0                       # DTB read misses
system.cpu1.itb.stage2_mmu.stage2_tlb.accesses            0                       # DTB accesses
system.cpu1.itb.stage2_mmu.stage2_tlb.align_faults            0                       # Number of TLB faults due to alignment restrictions
system.cpu1.itb.stage2_mmu.stage2_tlb.domain_faults            0                       # Number of TLB faults due to domain restrictions
system.cpu1.itb.stage2_mmu.stage2_tlb.flush_entries            0                       # Number of entries that have been flushed from TLB
system.cpu1.itb.stage2_mmu.stage2_tlb.flush_tlb            0                       # Number of times complete TLB was flushed
system.cpu1.itb.stage2_mmu.stage2_tlb.flush_tlb_asid            0                       # Number of times TLB was flushed by ASID
system.cpu1.itb.stage2_mmu.stage2_tlb.flush_tlb_mva            0                       # Number of times TLB was flushed by MVA
system.cpu1.itb.stage2_mmu.stage2_tlb.flush_tlb_mva_asid            0                       # Number of times TLB was flushed by MVA & ASID
system.cpu1.itb.stage2_mmu.stage2_tlb.hits            0                       # DTB hits
system.cpu1.itb.stage2_mmu.stage2_tlb.inst_accesses            0                       # ITB inst accesses
system.cpu1.itb.stage2_mmu.stage2_tlb.inst_hits            0                       # ITB inst hits
system.cpu1.itb.stage2_mmu.stage2_tlb.inst_misses            0                       # ITB inst misses
system.cpu1.itb.stage2_mmu.stage2_tlb.misses            0                       # DTB misses
system.cpu1.itb.stage2_mmu.stage2_tlb.perms_faults            0                       # Number of TLB faults due to permissions restrictions
system.cpu1.itb.stage2_mmu.stage2_tlb.prefetch_faults            0                       # Number of TLB faults due to prefetch
system.cpu1.itb.stage2_mmu.stage2_tlb.read_accesses            0                       # DTB read accesses
system.cpu1.itb.stage2_mmu.stage2_tlb.read_hits            0                       # DTB read hits
system.cpu1.itb.stage2_mmu.stage2_tlb.read_misses            0                       # DTB read misses
system.cpu1.itb.stage2_mmu.stage2_tlb.walker.walkRequestOrigin_Requested::Data            0                       # Table walker requests started/completed, data/inst
system.cpu1.itb.stage2_mmu.stage2_tlb.walker.walkRequestOrigin_Requested::Inst            0                       # Table walker requests started/completed, data/inst
system.cpu1.itb.stage2_mmu.stage2_tlb.walker.walkRequestOrigin_Requested::total            0                       # Table walker requests started/completed, data/inst
system.cpu1.itb.stage2_mmu.stage2_tlb.walker.walkRequestOrigin_Completed::Data            0                       # Table walker requests started/completed, data/inst
system.cpu1.itb.stage2_mmu.stage2_tlb.walker.walkRequestOrigin_Completed::Inst            0                       # Table walker requests started/completed, data/inst
system.cpu1.itb.stage2_mmu.stage2_tlb.walker.walkRequestOrigin_Completed::total            0                       # Table walker requests started/completed, data/inst
system.cpu1.itb.stage2_mmu.stage2_tlb.walker.walkRequestOrigin::total            0                       # Table walker requests started/completed, data/inst
system.cpu1.itb.stage2_mmu.stage2_tlb.walker.walks            0                       # Table walker walks requested
system.cpu1.itb.stage2_mmu.stage2_tlb.write_accesses            0                       # DTB write accesses
system.cpu1.itb.stage2_mmu.stage2_tlb.write_hits            0                       # DTB write hits
system.cpu1.itb.stage2_mmu.stage2_tlb.write_misses            0                       # DTB write misses
system.cpu1.itb.walker.walkPageSizes::4K       548554     99.23%     99.23% # Table walker page sizes translated
system.cpu1.itb.walker.walkPageSizes::2M         4235      0.77%    100.00% # Table walker page sizes translated
system.cpu1.itb.walker.walkPageSizes::total       552789                       # Table walker page sizes translated
system.cpu1.itb.walker.walkRequestOrigin_Requested::Data            0                       # Table walker requests started/completed, data/inst
system.cpu1.itb.walker.walkRequestOrigin_Requested::Inst       555094                       # Table walker requests started/completed, data/inst
system.cpu1.itb.walker.walkRequestOrigin_Requested::total       555094                       # Table walker requests started/completed, data/inst
system.cpu1.itb.walker.walkRequestOrigin_Completed::Data            0                       # Table walker requests started/completed, data/inst
system.cpu1.itb.walker.walkRequestOrigin_Completed::Inst       552789                       # Table walker requests started/completed, data/inst
system.cpu1.itb.walker.walkRequestOrigin_Completed::total       552789                       # Table walker requests started/completed, data/inst
system.cpu1.itb.walker.walkRequestOrigin::total      1107883                       # Table walker requests started/completed, data/inst
system.cpu1.itb.walker.walkWaitTime::samples       555094                       # Table walker wait (enqueue to first request) latency
system.cpu1.itb.walker.walkWaitTime::0         555094    100.00%    100.00% # Table walker wait (enqueue to first request) latency
system.cpu1.itb.walker.walkWaitTime::total       555094                       # Table walker wait (enqueue to first request) latency
system.cpu1.itb.walker.walks                   555094                       # Table walker walks requested
system.cpu1.itb.walker.walksLong               555094                       # Table walker walks initiated with long descriptors
system.cpu1.itb.walker.walksPending::samples  -1966753000                       # Table walker pending requests distribution
system.cpu1.itb.walker.walksPending::0    -1966753000    100.00%    100.00% # Table walker pending requests distribution
system.cpu1.itb.walker.walksPending::total  -1966753000                       # Table walker pending requests distribution
system.cpu1.itb.write_accesses                      0                       # DTB write accesses
system.cpu1.itb.write_hits                          0                       # DTB write hits
system.cpu1.itb.write_misses                        0                       # DTB write misses
system.cpu1.kern.inst.arm                           0                       # number of arm instructions executed
system.cpu1.kern.inst.quiesce                    2005                       # number of quiesce instructions executed
system.cpu1.not_idle_fraction                0.268301                       # Percentage of non-idle cycles
system.cpu1.numCycles                      1204979814                       # number of cpu cycles simulated
system.cpu1.numWorkItemsCompleted                   0                       # number of work items this cpu completed
system.cpu1.numWorkItemsStarted                     0                       # number of work items this cpu started
system.cpu1.num_busy_cycles              323297380.199737                       # Number of busy cycles
system.cpu1.num_cc_register_reads            69297210                       # number of times the CC registers were read
system.cpu1.num_cc_register_writes           66681047                       # number of times the CC registers were written
system.cpu1.num_conditional_control_insts     40732954                       # number of instructions that are conditional controls
system.cpu1.num_fp_alu_accesses                     0                       # Number of float alu accesses
system.cpu1.num_fp_insts                            0                       # number of float instructions
system.cpu1.num_fp_register_reads                   0                       # number of times the floating registers were read
system.cpu1.num_fp_register_writes                  0                       # number of times the floating registers were written
system.cpu1.num_func_calls                   16593054                       # number of times a function call or return occured
system.cpu1.num_idle_cycles              881682433.800263                       # Number of idle cycles
system.cpu1.num_int_alu_accesses            299379399                       # Number of integer alu accesses
system.cpu1.num_int_insts                   299379399                       # number of integer instructions
system.cpu1.num_int_register_reads          399062013                       # number of times the integer registers were read
system.cpu1.num_int_register_writes         237012027                       # number of times the integer registers were written
system.cpu1.num_load_insts                   61349861                       # Number of load instructions
system.cpu1.num_mem_refs                    108156637                       # number of memory refs
system.cpu1.num_store_insts                  46806776                       # Number of store instructions
system.cpu1.num_vec_alu_accesses               481760                       # Number of vector alu accesses
system.cpu1.num_vec_insts                      481760                       # number of vector instructions
system.cpu1.num_vec_register_reads             380252                       # number of times the vector registers were read
system.cpu1.num_vec_register_writes            114075                       # number of times the vector registers were written
system.cpu1.op_class::No_OpClass                94106      0.03%      0.03% # Class of executed instruction
system.cpu1.op_class::IntAlu                214384921     66.30%     66.33% # Class of executed instruction
system.cpu1.op_class::IntMult                  599045      0.19%     66.51% # Class of executed instruction
system.cpu1.op_class::IntDiv                    76197      0.02%     66.54% # Class of executed instruction
system.cpu1.op_class::FloatAdd                     30      0.00%     66.54% # Class of executed instruction
system.cpu1.op_class::FloatCmp                    227      0.00%     66.54% # Class of executed instruction
system.cpu1.op_class::FloatCvt                     26      0.00%     66.54% # Class of executed instruction
system.cpu1.op_class::FloatMult                    84      0.00%     66.54% # Class of executed instruction
system.cpu1.op_class::FloatMultAcc                  0      0.00%     66.54% # Class of executed instruction
system.cpu1.op_class::FloatDiv                      5      0.00%     66.54% # Class of executed instruction
system.cpu1.op_class::FloatMisc                 49006      0.02%     66.55% # Class of executed instruction
system.cpu1.op_class::FloatSqrt                     0      0.00%     66.55% # Class of executed instruction
system.cpu1.op_class::SimdAdd                      12      0.00%     66.55% # Class of executed instruction
system.cpu1.op_class::SimdAddAcc                    0      0.00%     66.55% # Class of executed instruction
system.cpu1.op_class::SimdAlu                      20      0.00%     66.55% # Class of executed instruction
system.cpu1.op_class::SimdCmp                       8      0.00%     66.55% # Class of executed instruction
system.cpu1.op_class::SimdCvt                       0      0.00%     66.55% # Class of executed instruction
system.cpu1.op_class::SimdMisc                      9      0.00%     66.55% # Class of executed instruction
system.cpu1.op_class::SimdMult                      0      0.00%     66.55% # Class of executed instruction
system.cpu1.op_class::SimdMultAcc                   0      0.00%     66.55% # Class of executed instruction
system.cpu1.op_class::SimdShift                     0      0.00%     66.55% # Class of executed instruction
system.cpu1.op_class::SimdShiftAcc                  0      0.00%     66.55% # Class of executed instruction
system.cpu1.op_class::SimdDiv                       0      0.00%     66.55% # Class of executed instruction
system.cpu1.op_class::SimdSqrt                      0      0.00%     66.55% # Class of executed instruction
system.cpu1.op_class::SimdFloatAdd                  0      0.00%     66.55% # Class of executed instruction
system.cpu1.op_class::SimdFloatAlu                  0      0.00%     66.55% # Class of executed instruction
system.cpu1.op_class::SimdFloatCmp                  0      0.00%     66.55% # Class of executed instruction
system.cpu1.op_class::SimdFloatCvt                  0      0.00%     66.55% # Class of executed instruction
system.cpu1.op_class::SimdFloatDiv                  0      0.00%     66.55% # Class of executed instruction
system.cpu1.op_class::SimdFloatMisc                 0      0.00%     66.55% # Class of executed instruction
system.cpu1.op_class::SimdFloatMult                 0      0.00%     66.55% # Class of executed instruction
system.cpu1.op_class::SimdFloatMultAcc              0      0.00%     66.55% # Class of executed instruction
system.cpu1.op_class::SimdFloatSqrt                 0      0.00%     66.55% # Class of executed instruction
system.cpu1.op_class::SimdReduceAdd                 0      0.00%     66.55% # Class of executed instruction
system.cpu1.op_class::SimdReduceAlu                 0      0.00%     66.55% # Class of executed instruction
system.cpu1.op_class::SimdReduceCmp                 0      0.00%     66.55% # Class of executed instruction
system.cpu1.op_class::SimdFloatReduceAdd            0      0.00%     66.55% # Class of executed instruction
system.cpu1.op_class::SimdFloatReduceCmp            0      0.00%     66.55% # Class of executed instruction
system.cpu1.op_class::SimdAes                       0      0.00%     66.55% # Class of executed instruction
system.cpu1.op_class::SimdAesMix                    0      0.00%     66.55% # Class of executed instruction
system.cpu1.op_class::SimdSha1Hash                  0      0.00%     66.55% # Class of executed instruction
system.cpu1.op_class::SimdSha1Hash2                 0      0.00%     66.55% # Class of executed instruction
system.cpu1.op_class::SimdSha256Hash                0      0.00%     66.55% # Class of executed instruction
system.cpu1.op_class::SimdSha256Hash2               0      0.00%     66.55% # Class of executed instruction
system.cpu1.op_class::SimdShaSigma2                 0      0.00%     66.55% # Class of executed instruction
system.cpu1.op_class::SimdShaSigma3                 0      0.00%     66.55% # Class of executed instruction
system.cpu1.op_class::SimdPredAlu                   0      0.00%     66.55% # Class of executed instruction
system.cpu1.op_class::MemRead                61349861     18.97%     85.52% # Class of executed instruction
system.cpu1.op_class::MemWrite               46806776     14.48%    100.00% # Class of executed instruction
system.cpu1.op_class::FloatMemRead                  0      0.00%    100.00% # Class of executed instruction
system.cpu1.op_class::FloatMemWrite                 0      0.00%    100.00% # Class of executed instruction
system.cpu1.op_class::IprAccess                     0      0.00%    100.00% # Class of executed instruction
system.cpu1.op_class::InstPrefetch                  0      0.00%    100.00% # Class of executed instruction
system.cpu1.op_class::total                 323360333                       # Class of executed instruction
system.cpu2.Branches                         66691129                       # Number of branches fetched
system.cpu2.committedInsts                  297394659                       # Number of instructions committed
system.cpu2.committedOps                    352130979                       # Number of ops (including micro ops) committed
system.cpu2.dtb.accesses                    121316221                       # DTB accesses
system.cpu2.dtb.align_faults                        0                       # Number of TLB faults due to alignment restrictions
system.cpu2.dtb.domain_faults                       0                       # Number of TLB faults due to domain restrictions
system.cpu2.dtb.flush_entries                   10549                       # Number of entries that have been flushed from TLB
system.cpu2.dtb.flush_tlb                          11                       # Number of times complete TLB was flushed
system.cpu2.dtb.flush_tlb_asid                    498                       # Number of times TLB was flushed by ASID
system.cpu2.dtb.flush_tlb_mva                    1467                       # Number of times TLB was flushed by MVA
system.cpu2.dtb.flush_tlb_mva_asid              57538                       # Number of times TLB was flushed by MVA & ASID
system.cpu2.dtb.hits                        121096159                       # DTB hits
system.cpu2.dtb.inst_accesses                       0                       # ITB inst accesses
system.cpu2.dtb.inst_hits                           0                       # ITB inst hits
system.cpu2.dtb.inst_misses                         0                       # ITB inst misses
system.cpu2.dtb.misses                         220062                       # DTB misses
system.cpu2.dtb.perms_faults                     4482                       # Number of TLB faults due to permissions restrictions
system.cpu2.dtb.prefetch_faults                 36497                       # Number of TLB faults due to prefetch
system.cpu2.dtb.read_accesses                68266683                       # DTB read accesses
system.cpu2.dtb.read_hits                    68074503                       # DTB read hits
system.cpu2.dtb.read_misses                    192180                       # DTB read misses
system.cpu2.dtb.stage2_mmu.stage2_tlb.accesses            0                       # DTB accesses
system.cpu2.dtb.stage2_mmu.stage2_tlb.align_faults            0                       # Number of TLB faults due to alignment restrictions
system.cpu2.dtb.stage2_mmu.stage2_tlb.domain_faults            0                       # Number of TLB faults due to domain restrictions
system.cpu2.dtb.stage2_mmu.stage2_tlb.flush_entries            0                       # Number of entries that have been flushed from TLB
system.cpu2.dtb.stage2_mmu.stage2_tlb.flush_tlb            0                       # Number of times complete TLB was flushed
system.cpu2.dtb.stage2_mmu.stage2_tlb.flush_tlb_asid            0                       # Number of times TLB was flushed by ASID
system.cpu2.dtb.stage2_mmu.stage2_tlb.flush_tlb_mva            0                       # Number of times TLB was flushed by MVA
system.cpu2.dtb.stage2_mmu.stage2_tlb.flush_tlb_mva_asid            0                       # Number of times TLB was flushed by MVA & ASID
system.cpu2.dtb.stage2_mmu.stage2_tlb.hits            0                       # DTB hits
system.cpu2.dtb.stage2_mmu.stage2_tlb.inst_accesses            0                       # ITB inst accesses
system.cpu2.dtb.stage2_mmu.stage2_tlb.inst_hits            0                       # ITB inst hits
system.cpu2.dtb.stage2_mmu.stage2_tlb.inst_misses            0                       # ITB inst misses
system.cpu2.dtb.stage2_mmu.stage2_tlb.misses            0                       # DTB misses
system.cpu2.dtb.stage2_mmu.stage2_tlb.perms_faults            0                       # Number of TLB faults due to permissions restrictions
system.cpu2.dtb.stage2_mmu.stage2_tlb.prefetch_faults            0                       # Number of TLB faults due to prefetch
system.cpu2.dtb.stage2_mmu.stage2_tlb.read_accesses            0                       # DTB read accesses
system.cpu2.dtb.stage2_mmu.stage2_tlb.read_hits            0                       # DTB read hits
system.cpu2.dtb.stage2_mmu.stage2_tlb.read_misses            0                       # DTB read misses
system.cpu2.dtb.stage2_mmu.stage2_tlb.walker.walkRequestOrigin_Requested::Data            0                       # Table walker requests started/completed, data/inst
system.cpu2.dtb.stage2_mmu.stage2_tlb.walker.walkRequestOrigin_Requested::Inst            0                       # Table walker requests started/completed, data/inst
system.cpu2.dtb.stage2_mmu.stage2_tlb.walker.walkRequestOrigin_Requested::total            0                       # Table walker requests started/completed, data/inst
system.cpu2.dtb.stage2_mmu.stage2_tlb.walker.walkRequestOrigin_Completed::Data            0                       # Table walker requests started/completed, data/inst
system.cpu2.dtb.stage2_mmu.stage2_tlb.walker.walkRequestOrigin_Completed::Inst            0                       # Table walker requests started/completed, data/inst
system.cpu2.dtb.stage2_mmu.stage2_tlb.walker.walkRequestOrigin_Completed::total            0                       # Table walker requests started/completed, data/inst
system.cpu2.dtb.stage2_mmu.stage2_tlb.walker.walkRequestOrigin::total            0                       # Table walker requests started/completed, data/inst
system.cpu2.dtb.stage2_mmu.stage2_tlb.walker.walks            0                       # Table walker walks requested
system.cpu2.dtb.stage2_mmu.stage2_tlb.write_accesses            0                       # DTB write accesses
system.cpu2.dtb.stage2_mmu.stage2_tlb.write_hits            0                       # DTB write hits
system.cpu2.dtb.stage2_mmu.stage2_tlb.write_misses            0                       # DTB write misses
system.cpu2.dtb.walker.walkPageSizes::4K       210443     97.65%     97.65% # Table walker page sizes translated
system.cpu2.dtb.walker.walkPageSizes::2M         3300      1.53%     99.18% # Table walker page sizes translated
system.cpu2.dtb.walker.walkPageSizes::1G         1766      0.82%    100.00% # Table walker page sizes translated
system.cpu2.dtb.walker.walkPageSizes::total       215509                       # Table walker page sizes translated
system.cpu2.dtb.walker.walkRequestOrigin_Requested::Data       220062                       # Table walker requests started/completed, data/inst
system.cpu2.dtb.walker.walkRequestOrigin_Requested::Inst            0                       # Table walker requests started/completed, data/inst
system.cpu2.dtb.walker.walkRequestOrigin_Requested::total       220062                       # Table walker requests started/completed, data/inst
system.cpu2.dtb.walker.walkRequestOrigin_Completed::Data       215509                       # Table walker requests started/completed, data/inst
system.cpu2.dtb.walker.walkRequestOrigin_Completed::Inst            0                       # Table walker requests started/completed, data/inst
system.cpu2.dtb.walker.walkRequestOrigin_Completed::total       215509                       # Table walker requests started/completed, data/inst
system.cpu2.dtb.walker.walkRequestOrigin::total       435571                       # Table walker requests started/completed, data/inst
system.cpu2.dtb.walker.walkWaitTime::samples       220062                       # Table walker wait (enqueue to first request) latency
system.cpu2.dtb.walker.walkWaitTime::0         220062    100.00%    100.00% # Table walker wait (enqueue to first request) latency
system.cpu2.dtb.walker.walkWaitTime::total       220062                       # Table walker wait (enqueue to first request) latency
system.cpu2.dtb.walker.walks                   220062                       # Table walker walks requested
system.cpu2.dtb.walker.walksLong               220062                       # Table walker walks initiated with long descriptors
system.cpu2.dtb.walker.walksPending::samples     39902108                       # Table walker pending requests distribution
system.cpu2.dtb.walker.walksPending::0       39902108    100.00%    100.00% # Table walker pending requests distribution
system.cpu2.dtb.walker.walksPending::total     39902108                       # Table walker pending requests distribution
system.cpu2.dtb.write_accesses               53049538                       # DTB write accesses
system.cpu2.dtb.write_hits                   53021656                       # DTB write hits
system.cpu2.dtb.write_misses                    27882                       # DTB write misses
system.cpu2.idle_fraction                    0.707804                       # Percentage of idle cycles
system.cpu2.itb.accesses                    297424867                       # DTB accesses
system.cpu2.itb.align_faults                        0                       # Number of TLB faults due to alignment restrictions
system.cpu2.itb.domain_faults                       0                       # Number of TLB faults due to domain restrictions
system.cpu2.itb.flush_entries                    5481                       # Number of entries that have been flushed from TLB
system.cpu2.itb.flush_tlb                          11                       # Number of times complete TLB was flushed
system.cpu2.itb.flush_tlb_asid                    498                       # Number of times TLB was flushed by ASID
system.cpu2.itb.flush_tlb_mva                    1467                       # Number of times TLB was flushed by MVA
system.cpu2.itb.flush_tlb_mva_asid              57538                       # Number of times TLB was flushed by MVA & ASID
system.cpu2.itb.hits                        296824316                       # DTB hits
system.cpu2.itb.inst_accesses               297424867                       # ITB inst accesses
system.cpu2.itb.inst_hits                   296824316                       # ITB inst hits
system.cpu2.itb.inst_misses                    600551                       # ITB inst misses
system.cpu2.itb.misses                         600551                       # DTB misses
system.cpu2.itb.perms_faults                        0                       # Number of TLB faults due to permissions restrictions
system.cpu2.itb.prefetch_faults                     0                       # Number of TLB faults due to prefetch
system.cpu2.itb.read_accesses                       0                       # DTB read accesses
system.cpu2.itb.read_hits                           0                       # DTB read hits
system.cpu2.itb.read_misses                         0                       # DTB read misses
system.cpu2.itb.stage2_mmu.stage2_tlb.accesses            0                       # DTB accesses
system.cpu2.itb.stage2_mmu.stage2_tlb.align_faults            0                       # Number of TLB faults due to alignment restrictions
system.cpu2.itb.stage2_mmu.stage2_tlb.domain_faults            0                       # Number of TLB faults due to domain restrictions
system.cpu2.itb.stage2_mmu.stage2_tlb.flush_entries            0                       # Number of entries that have been flushed from TLB
system.cpu2.itb.stage2_mmu.stage2_tlb.flush_tlb            0                       # Number of times complete TLB was flushed
system.cpu2.itb.stage2_mmu.stage2_tlb.flush_tlb_asid            0                       # Number of times TLB was flushed by ASID
system.cpu2.itb.stage2_mmu.stage2_tlb.flush_tlb_mva            0                       # Number of times TLB was flushed by MVA
system.cpu2.itb.stage2_mmu.stage2_tlb.flush_tlb_mva_asid            0                       # Number of times TLB was flushed by MVA & ASID
system.cpu2.itb.stage2_mmu.stage2_tlb.hits            0                       # DTB hits
system.cpu2.itb.stage2_mmu.stage2_tlb.inst_accesses            0                       # ITB inst accesses
system.cpu2.itb.stage2_mmu.stage2_tlb.inst_hits            0                       # ITB inst hits
system.cpu2.itb.stage2_mmu.stage2_tlb.inst_misses            0                       # ITB inst misses
system.cpu2.itb.stage2_mmu.stage2_tlb.misses            0                       # DTB misses
system.cpu2.itb.stage2_mmu.stage2_tlb.perms_faults            0                       # Number of TLB faults due to permissions restrictions
system.cpu2.itb.stage2_mmu.stage2_tlb.prefetch_faults            0                       # Number of TLB faults due to prefetch
system.cpu2.itb.stage2_mmu.stage2_tlb.read_accesses            0                       # DTB read accesses
system.cpu2.itb.stage2_mmu.stage2_tlb.read_hits            0                       # DTB read hits
system.cpu2.itb.stage2_mmu.stage2_tlb.read_misses            0                       # DTB read misses
system.cpu2.itb.stage2_mmu.stage2_tlb.walker.walkRequestOrigin_Requested::Data            0                       # Table walker requests started/completed, data/inst
system.cpu2.itb.stage2_mmu.stage2_tlb.walker.walkRequestOrigin_Requested::Inst            0                       # Table walker requests started/completed, data/inst
system.cpu2.itb.stage2_mmu.stage2_tlb.walker.walkRequestOrigin_Requested::total            0                       # Table walker requests started/completed, data/inst
system.cpu2.itb.stage2_mmu.stage2_tlb.walker.walkRequestOrigin_Completed::Data            0                       # Table walker requests started/completed, data/inst
system.cpu2.itb.stage2_mmu.stage2_tlb.walker.walkRequestOrigin_Completed::Inst            0                       # Table walker requests started/completed, data/inst
system.cpu2.itb.stage2_mmu.stage2_tlb.walker.walkRequestOrigin_Completed::total            0                       # Table walker requests started/completed, data/inst
system.cpu2.itb.stage2_mmu.stage2_tlb.walker.walkRequestOrigin::total            0                       # Table walker requests started/completed, data/inst
system.cpu2.itb.stage2_mmu.stage2_tlb.walker.walks            0                       # Table walker walks requested
system.cpu2.itb.stage2_mmu.stage2_tlb.write_accesses            0                       # DTB write accesses
system.cpu2.itb.stage2_mmu.stage2_tlb.write_hits            0                       # DTB write hits
system.cpu2.itb.stage2_mmu.stage2_tlb.write_misses            0                       # DTB write misses
system.cpu2.itb.walker.walkPageSizes::4K       593836     99.14%     99.14% # Table walker page sizes translated
system.cpu2.itb.walker.walkPageSizes::2M         5163      0.86%    100.00% # Table walker page sizes translated
system.cpu2.itb.walker.walkPageSizes::total       598999                       # Table walker page sizes translated
system.cpu2.itb.walker.walkRequestOrigin_Requested::Data            0                       # Table walker requests started/completed, data/inst
system.cpu2.itb.walker.walkRequestOrigin_Requested::Inst       600551                       # Table walker requests started/completed, data/inst
system.cpu2.itb.walker.walkRequestOrigin_Requested::total       600551                       # Table walker requests started/completed, data/inst
system.cpu2.itb.walker.walkRequestOrigin_Completed::Data            0                       # Table walker requests started/completed, data/inst
system.cpu2.itb.walker.walkRequestOrigin_Completed::Inst       598999                       # Table walker requests started/completed, data/inst
system.cpu2.itb.walker.walkRequestOrigin_Completed::total       598999                       # Table walker requests started/completed, data/inst
system.cpu2.itb.walker.walkRequestOrigin::total      1199550                       # Table walker requests started/completed, data/inst
system.cpu2.itb.walker.walkWaitTime::samples       600551                       # Table walker wait (enqueue to first request) latency
system.cpu2.itb.walker.walkWaitTime::0         600551    100.00%    100.00% # Table walker wait (enqueue to first request) latency
system.cpu2.itb.walker.walkWaitTime::total       600551                       # Table walker wait (enqueue to first request) latency
system.cpu2.itb.walker.walks                   600551                       # Table walker walks requested
system.cpu2.itb.walker.walksLong               600551                       # Table walker walks initiated with long descriptors
system.cpu2.itb.walker.walksPending::samples     39894208                       # Table walker pending requests distribution
system.cpu2.itb.walker.walksPending::0       39894208    100.00%    100.00% # Table walker pending requests distribution
system.cpu2.itb.walker.walksPending::total     39894208                       # Table walker pending requests distribution
system.cpu2.itb.write_accesses                      0                       # DTB write accesses
system.cpu2.itb.write_hits                          0                       # DTB write hits
system.cpu2.itb.write_misses                        0                       # DTB write misses
system.cpu2.kern.inst.arm                           0                       # number of arm instructions executed
system.cpu2.kern.inst.quiesce                    1711                       # number of quiesce instructions executed
system.cpu2.not_idle_fraction                0.292196                       # Percentage of non-idle cycles
system.cpu2.numCycles                      1205221677                       # number of cpu cycles simulated
system.cpu2.numWorkItemsCompleted                   0                       # number of work items this cpu completed
system.cpu2.numWorkItemsStarted                     0                       # number of work items this cpu started
system.cpu2.num_busy_cycles              352161133.826966                       # Number of busy cycles
system.cpu2.num_cc_register_reads            72409258                       # number of times the CC registers were read
system.cpu2.num_cc_register_writes           69702916                       # number of times the CC registers were written
system.cpu2.num_conditional_control_insts     42522502                       # number of instructions that are conditional controls
system.cpu2.num_fp_alu_accesses                     0                       # Number of float alu accesses
system.cpu2.num_fp_insts                            0                       # number of float instructions
system.cpu2.num_fp_register_reads                   0                       # number of times the floating registers were read
system.cpu2.num_fp_register_writes                  0                       # number of times the floating registers were written
system.cpu2.num_func_calls                   19531378                       # number of times a function call or return occured
system.cpu2.num_idle_cycles              853060543.173034                       # Number of idle cycles
system.cpu2.num_int_alu_accesses            327022421                       # Number of integer alu accesses
system.cpu2.num_int_insts                   327022421                       # number of integer instructions
system.cpu2.num_int_register_reads          431699162                       # number of times the integer registers were read
system.cpu2.num_int_register_writes         256943734                       # number of times the integer registers were written
system.cpu2.num_load_insts                   68166476                       # Number of load instructions
system.cpu2.num_mem_refs                    121201819                       # number of memory refs
system.cpu2.num_store_insts                  53035343                       # Number of store instructions
system.cpu2.num_vec_alu_accesses               502775                       # Number of vector alu accesses
system.cpu2.num_vec_insts                      502775                       # number of vector instructions
system.cpu2.num_vec_register_reads             364606                       # number of times the vector registers were read
system.cpu2.num_vec_register_writes            159949                       # number of times the vector registers were written
system.cpu2.op_class::No_OpClass               102852      0.03%      0.03% # Class of executed instruction
system.cpu2.op_class::IntAlu                230223625     65.37%     65.40% # Class of executed instruction
system.cpu2.op_class::IntMult                  494033      0.14%     65.54% # Class of executed instruction
system.cpu2.op_class::IntDiv                    71907      0.02%     65.56% # Class of executed instruction
system.cpu2.op_class::FloatAdd                      0      0.00%     65.56% # Class of executed instruction
system.cpu2.op_class::FloatCmp                      1      0.00%     65.56% # Class of executed instruction
system.cpu2.op_class::FloatCvt                      2      0.00%     65.56% # Class of executed instruction
system.cpu2.op_class::FloatMult                     0      0.00%     65.56% # Class of executed instruction
system.cpu2.op_class::FloatMultAcc                  0      0.00%     65.56% # Class of executed instruction
system.cpu2.op_class::FloatDiv                      1      0.00%     65.56% # Class of executed instruction
system.cpu2.op_class::FloatMisc                 65510      0.02%     65.58% # Class of executed instruction
system.cpu2.op_class::FloatSqrt                     0      0.00%     65.58% # Class of executed instruction
system.cpu2.op_class::SimdAdd                       5      0.00%     65.58% # Class of executed instruction
system.cpu2.op_class::SimdAddAcc                    0      0.00%     65.58% # Class of executed instruction
system.cpu2.op_class::SimdAlu                       4      0.00%     65.58% # Class of executed instruction
system.cpu2.op_class::SimdCmp                       4      0.00%     65.58% # Class of executed instruction
system.cpu2.op_class::SimdCvt                       0      0.00%     65.58% # Class of executed instruction
system.cpu2.op_class::SimdMisc                      4      0.00%     65.58% # Class of executed instruction
system.cpu2.op_class::SimdMult                      0      0.00%     65.58% # Class of executed instruction
system.cpu2.op_class::SimdMultAcc                   0      0.00%     65.58% # Class of executed instruction
system.cpu2.op_class::SimdShift                     0      0.00%     65.58% # Class of executed instruction
system.cpu2.op_class::SimdShiftAcc                  0      0.00%     65.58% # Class of executed instruction
system.cpu2.op_class::SimdDiv                       0      0.00%     65.58% # Class of executed instruction
system.cpu2.op_class::SimdSqrt                      0      0.00%     65.58% # Class of executed instruction
system.cpu2.op_class::SimdFloatAdd                  0      0.00%     65.58% # Class of executed instruction
system.cpu2.op_class::SimdFloatAlu                  0      0.00%     65.58% # Class of executed instruction
system.cpu2.op_class::SimdFloatCmp                  0      0.00%     65.58% # Class of executed instruction
system.cpu2.op_class::SimdFloatCvt                  0      0.00%     65.58% # Class of executed instruction
system.cpu2.op_class::SimdFloatDiv                  0      0.00%     65.58% # Class of executed instruction
system.cpu2.op_class::SimdFloatMisc                 0      0.00%     65.58% # Class of executed instruction
system.cpu2.op_class::SimdFloatMult                 0      0.00%     65.58% # Class of executed instruction
system.cpu2.op_class::SimdFloatMultAcc              0      0.00%     65.58% # Class of executed instruction
system.cpu2.op_class::SimdFloatSqrt                 0      0.00%     65.58% # Class of executed instruction
system.cpu2.op_class::SimdReduceAdd                 0      0.00%     65.58% # Class of executed instruction
system.cpu2.op_class::SimdReduceAlu                 0      0.00%     65.58% # Class of executed instruction
system.cpu2.op_class::SimdReduceCmp                 0      0.00%     65.58% # Class of executed instruction
system.cpu2.op_class::SimdFloatReduceAdd            0      0.00%     65.58% # Class of executed instruction
system.cpu2.op_class::SimdFloatReduceCmp            0      0.00%     65.58% # Class of executed instruction
system.cpu2.op_class::SimdAes                       0      0.00%     65.58% # Class of executed instruction
system.cpu2.op_class::SimdAesMix                    0      0.00%     65.58% # Class of executed instruction
system.cpu2.op_class::SimdSha1Hash                  0      0.00%     65.58% # Class of executed instruction
system.cpu2.op_class::SimdSha1Hash2                 0      0.00%     65.58% # Class of executed instruction
system.cpu2.op_class::SimdSha256Hash                0      0.00%     65.58% # Class of executed instruction
system.cpu2.op_class::SimdSha256Hash2               0      0.00%     65.58% # Class of executed instruction
system.cpu2.op_class::SimdShaSigma2                 0      0.00%     65.58% # Class of executed instruction
system.cpu2.op_class::SimdShaSigma3                 0      0.00%     65.58% # Class of executed instruction
system.cpu2.op_class::SimdPredAlu                   0      0.00%     65.58% # Class of executed instruction
system.cpu2.op_class::MemRead                68166476     19.36%     84.94% # Class of executed instruction
system.cpu2.op_class::MemWrite               53035343     15.06%    100.00% # Class of executed instruction
system.cpu2.op_class::FloatMemRead                  0      0.00%    100.00% # Class of executed instruction
system.cpu2.op_class::FloatMemWrite                 0      0.00%    100.00% # Class of executed instruction
system.cpu2.op_class::IprAccess                     0      0.00%    100.00% # Class of executed instruction
system.cpu2.op_class::InstPrefetch                  0      0.00%    100.00% # Class of executed instruction
system.cpu2.op_class::total                 352159767                       # Class of executed instruction
system.membus.snoop_filter.hit_multi_requests        26661                       # Number of requests hitting in the snoop filter with multiple (>1) holders of the requested data.
system.membus.snoop_filter.hit_multi_snoops            0                       # Number of snoops hitting in the snoop filter with multiple (>1) holders of the requested data.
[...]
system.mem_ctrls.rdQLenPdf::23                      0                       # What read queue length does an incoming req see
system.mem_ctrls.rdQLenPdf::24                      0                       # What read queue length does an incoming req see
system.mem_ctrls.rdQLenPdf::25                      0                       # What read queue length does an incoming req see
system.mem_ctrls.rdQLenPdf::26                      0                       # What read queue length does an incoming req see
system.mem_ctrls.rdQLenPdf::27                      0                       # What read queue length does an incoming req see
system.mem_ctrls.rdQLenPdf::28                      0                       # What read queue length does an incoming req see
system.mem_ctrls.rdQLenPdf::29                      0                       # What read queue length does an incoming req see
system.mem_ctrls.rdQLenPdf::30                      0                       # What read queue length does an incoming req see
system.mem_ctrls.rdQLenPdf::31                      0                       # What read queue length does an incoming req see
system.mem_ctrls.wrQLenPdf::0                       0                       # What write queue length does an incoming req see
system.mem_ctrls.wrQLenPdf::1                       0                       # What write queue length does an incoming req see
system.mem_ctrls.wrQLenPdf::2                       0                       # What write queue length does an incoming req see
system.mem_ctrls.wrQLenPdf::3                       0                       # What write queue length does an incoming req see
system.mem_ctrls.wrQLenPdf::4                       0                       # What write queue length does an incoming req see
system.mem_ctrls.wrQLenPdf::5                       0                       # What write queue length does an incoming req see
system.mem_ctrls.wrQLenPdf::6                       0                       # What write queue length does an incoming req see
system.mem_ctrls.wrQLenPdf::7                       0                       # What write queue length does an incoming req see
system.mem_ctrls.wrQLenPdf::8                       0                       # What write queue length does an incoming req see
system.mem_ctrls.wrQLenPdf::9                       0                       # What write queue length does an incoming req see
system.mem_ctrls.wrQLenPdf::10                      0                       # What write queue length does an incoming req see
system.mem_ctrls.wrQLenPdf::11                      0                       # What write queue length does an incoming req see
system.mem_ctrls.wrQLenPdf::12                      0                       # What write queue length does an incoming req see
system.mem_ctrls.wrQLenPdf::13                      0                       # What write queue length does an incoming req see
system.mem_ctrls.wrQLenPdf::14                      0                       # What write queue length does an incoming req see
system.mem_ctrls.wrQLenPdf::15                      0                       # What write queue length does an incoming req see
system.mem_ctrls.wrQLenPdf::16                      0                       # What write queue length does an incoming req see
system.mem_ctrls.wrQLenPdf::17                      0                       # What write queue length does an incoming req see
system.mem_ctrls.wrQLenPdf::18                      0                       # What write queue length does an incoming req see
system.mem_ctrls.wrQLenPdf::19                      0                       # What write queue length does an incoming req see
system.mem_ctrls.wrQLenPdf::20                      0                       # What write queue length does an incoming req see
system.mem_ctrls.wrQLenPdf::21                      0                       # What write queue length does an incoming req see
system.mem_ctrls.wrQLenPdf::22                      0                       # What write queue length does an incoming req see
system.mem_ctrls.wrQLenPdf::23                      0                       # What write queue length does an incoming req see
system.mem_ctrls.wrQLenPdf::24                      0                       # What write queue length does an incoming req see
system.mem_ctrls.wrQLenPdf::25                      0                       # What write queue length does an incoming req see
system.mem_ctrls.wrQLenPdf::26                      0                       # What write queue length does an incoming req see
system.mem_ctrls.wrQLenPdf::27                      0                       # What write queue length does an incoming req see
system.mem_ctrls.wrQLenPdf::28                      0                       # What write queue length does an incoming req see
system.mem_ctrls.wrQLenPdf::29                      0                       # What write queue length does an incoming req see
system.mem_ctrls.wrQLenPdf::30                      0                       # What write queue length does an incoming req see
system.mem_ctrls.wrQLenPdf::31                      0                       # What write queue length does an incoming req see
system.mem_ctrls.wrQLenPdf::32                      0                       # What write queue length does an incoming req see
system.mem_ctrls.wrQLenPdf::33                      0                       # What write queue length does an incoming req see
system.mem_ctrls.wrQLenPdf::34                      0                       # What write queue length does an incoming req see
system.mem_ctrls.wrQLenPdf::35                      0                       # What write queue length does an incoming req see
system.mem_ctrls.wrQLenPdf::36                      0                       # What write queue length does an incoming req see
system.mem_ctrls.wrQLenPdf::37                      0                       # What write queue length does an incoming req see
system.mem_ctrls.wrQLenPdf::38                      0                       # What write queue length does an incoming req see
system.mem_ctrls.wrQLenPdf::39                      0                       # What write queue length does an incoming req see
system.mem_ctrls.wrQLenPdf::40                      0                       # What write queue length does an incoming req see
system.mem_ctrls.wrQLenPdf::41                      0                       # What write queue length does an incoming req see
system.mem_ctrls.wrQLenPdf::42                      0                       # What write queue length does an incoming req see
system.mem_ctrls.wrQLenPdf::43                      0                       # What write queue length does an incoming req see
system.mem_ctrls.wrQLenPdf::44                      0                       # What write queue length does an incoming req see
system.mem_ctrls.wrQLenPdf::45                      0                       # What write queue length does an incoming req see
system.mem_ctrls.wrQLenPdf::46                      0                       # What write queue length does an incoming req see
system.mem_ctrls.wrQLenPdf::47                      0                       # What write queue length does an incoming req see
system.mem_ctrls.wrQLenPdf::48                      0                       # What write queue length does an incoming req see
system.mem_ctrls.wrQLenPdf::49                      0                       # What write queue length does an incoming req see
system.mem_ctrls.wrQLenPdf::50                      0                       # What write queue length does an incoming req see
system.mem_ctrls.wrQLenPdf::51                      0                       # What write queue length does an incoming req see
system.mem_ctrls.wrQLenPdf::52                      0                       # What write queue length does an incoming req see
system.mem_ctrls.wrQLenPdf::53                      0                       # What write queue length does an incoming req see
system.mem_ctrls.wrQLenPdf::54                      0                       # What write queue length does an incoming req see
system.mem_ctrls.wrQLenPdf::55                      0                       # What write queue length does an incoming req see
system.mem_ctrls.wrQLenPdf::56                      0                       # What write queue length does an incoming req see
system.mem_ctrls.wrQLenPdf::57                      0                       # What write queue length does an incoming req see
system.mem_ctrls.wrQLenPdf::58                      0                       # What write queue length does an incoming req see
system.mem_ctrls.wrQLenPdf::59                      0                       # What write queue length does an incoming req see
system.mem_ctrls.wrQLenPdf::60                      0                       # What write queue length does an incoming req see
system.mem_ctrls.wrQLenPdf::61                      0                       # What write queue length does an incoming req see
system.mem_ctrls.wrQLenPdf::62                      0                       # What write queue length does an incoming req see
system.mem_ctrls.wrQLenPdf::63                      0                       # What write queue length does an incoming req see
system.mem_ctrls.bytesReadDRAM                      0                       # Total number of bytes read from DRAM
system.mem_ctrls.bytesReadWrQ                       0                       # Total number of bytes read from write queue
system.mem_ctrls.bytesWritten                       0                       # Total number of bytes written to DRAM
system.mem_ctrls.bytesReadSys                       0                       # Total read bytes from the system interface side
system.mem_ctrls.bytesWrittenSys                    0                       # Total written bytes from the system interface side
system.mem_ctrls.avgRdBW                         0.00                       # Average DRAM read bandwidth in MiByte/s
system.mem_ctrls.avgWrBW                         0.00                       # Average achieved write bandwidth in MiByte/s
system.mem_ctrls.avgRdBWSys                      0.00                       # Average system read bandwidth in MiByte/s
system.mem_ctrls.avgWrBWSys                      0.00                       # Average system write bandwidth in MiByte/s
system.mem_ctrls.peakBW                      12800.00                       # Theoretical peak bandwidth in MiByte/s
system.mem_ctrls.busUtil                         0.00                       # Data bus utilization in percentage
system.mem_ctrls.busUtilRead                     0.00                       # Data bus utilization in percentage for reads
system.mem_ctrls.busUtilWrite                    0.00                       # Data bus utilization in percentage for writes
system.mem_ctrls.totGap                             0                       # Total gap between requests
system.mem_ctrls.avgGap                           nan                       # Average gap between requests
system.mem_ctrls.pageHitRate                      nan                       # Row buffer hit rate, read and write combined
system.mem_ctrls.rank1.actEnergy                    0                       # Energy for activate commands per rank (pJ)
system.mem_ctrls.rank1.preEnergy                    0                       # Energy for precharge commands per rank (pJ)
system.mem_ctrls.rank1.readEnergy                   0                       # Energy for read commands per rank (pJ)
system.mem_ctrls.rank1.writeEnergy                  0                       # Energy for write commands per rank (pJ)
system.mem_ctrls.rank1.refreshEnergy                0                       # Energy for refresh commands per rank (pJ)
system.mem_ctrls.rank1.actBackEnergy                0                       # Energy for active background per rank (pJ)
system.mem_ctrls.rank1.preBackEnergy     731231057280                       # Energy for precharge background per rank (pJ)
system.mem_ctrls.rank1.actPowerDownEnergy            0                       # Energy for active power-down per rank (pJ)
system.mem_ctrls.rank1.prePowerDownEnergy            0                       # Energy for precharge power-down per rank (pJ)
system.mem_ctrls.rank1.selfRefreshEnergy            0                       # Energy for self refresh per rank (pJ)
system.mem_ctrls.rank1.totalEnergy       731231057280                       # Total energy per rank (pJ)
system.mem_ctrls.rank1.averagePower        384.000000                       # Core power per rank (mW)
system.mem_ctrls.rank1.totalIdleTime                0                       # Total Idle time Per DRAM Rank
system.mem_ctrls.rank1.memoryStateTime::IDLE 1904247544700                       # Time in different power states
system.mem_ctrls.rank1.memoryStateTime::REF            0                       # Time in different power states
system.mem_ctrls.rank1.memoryStateTime::SREF            0                       # Time in different power states
system.mem_ctrls.rank1.memoryStateTime::PRE_PDN            0                       # Time in different power states
system.mem_ctrls.rank1.memoryStateTime::ACT            0                       # Time in different power states
system.mem_ctrls.rank1.memoryStateTime::ACT_PDN            0                       # Time in different power states
system.mem_ctrls.rank0.actEnergy                    0                       # Energy for activate commands per rank (pJ)
system.mem_ctrls.rank0.preEnergy                    0                       # Energy for precharge commands per rank (pJ)
system.mem_ctrls.rank0.readEnergy                   0                       # Energy for read commands per rank (pJ)
system.mem_ctrls.rank0.writeEnergy                  0                       # Energy for write commands per rank (pJ)
system.mem_ctrls.rank0.refreshEnergy                0                       # Energy for refresh commands per rank (pJ)
system.mem_ctrls.rank0.actBackEnergy                0                       # Energy for active background per rank (pJ)
system.mem_ctrls.rank0.preBackEnergy     731231057280                       # Energy for precharge background per rank (pJ)
system.mem_ctrls.rank0.actPowerDownEnergy            0                       # Energy for active power-down per rank (pJ)
system.mem_ctrls.rank0.prePowerDownEnergy            0                       # Energy for precharge power-down per rank (pJ)
system.mem_ctrls.rank0.selfRefreshEnergy            0                       # Energy for self refresh per rank (pJ)
system.mem_ctrls.rank0.totalEnergy       731231057280                       # Total energy per rank (pJ)
system.mem_ctrls.rank0.averagePower        384.000000                       # Core power per rank (mW)
system.mem_ctrls.rank0.totalIdleTime                0                       # Total Idle time Per DRAM Rank
system.mem_ctrls.rank0.memoryStateTime::IDLE 1904247544700                       # Time in different power states
system.mem_ctrls.rank0.memoryStateTime::REF            0                       # Time in different power states
system.mem_ctrls.rank0.memoryStateTime::SREF            0                       # Time in different power states
system.mem_ctrls.rank0.memoryStateTime::PRE_PDN            0                       # Time in different power states
system.mem_ctrls.rank0.memoryStateTime::ACT            0                       # Time in different power states
system.mem_ctrls.rank0.memoryStateTime::ACT_PDN            0                       # Time in different power states
system.iobus.pwrStateResidencyTicks::UNDEFINED 1904247544700                       # Cumulative time (in ticks) in various power states
system.iobus.trans_dist::ReadReq                37546                       # Transaction distribution
system.iobus.trans_dist::ReadResp               37546                       # Transaction distribution
system.iobus.trans_dist::WriteReq              295030                       # Transaction distribution
system.iobus.trans_dist::WriteResp             295030                       # Transaction distribution
system.iobus.pkt_count_system.bridge.master::system.realview.realview_io.pio          146                       # Packet count per connected master and slave (bytes)
system.iobus.pkt_count_system.bridge.master::system.realview.uart.pio        56992                       # Packet count per connected master and slave (bytes)
system.iobus.pkt_count_system.bridge.master::system.realview.pci_host.pio          302                       # Packet count per connected master and slave (bytes)
system.iobus.pkt_count_system.bridge.master::system.realview.energy_ctrl.pio            2                       # Packet count per connected master and slave (bytes)
system.iobus.pkt_count_system.bridge.master::system.realview.vio0.pio            6                       # Packet count per connected master and slave (bytes)
system.iobus.pkt_count_system.bridge.master::system.realview.vio1.pio            6                       # Packet count per connected master and slave (bytes)
system.iobus.pkt_count_system.bridge.master::system.pci_ide.pio        80844                       # Packet count per connected master and slave (bytes)
system.iobus.pkt_count_system.bridge.master::total       138298                       # Packet count per connected master and slave (bytes)
system.iobus.pkt_count_system.pci_ide.dma::system.iocache.cpu_side       526854                       # Packet count per connected master and slave (bytes)
system.iobus.pkt_count_system.pci_ide.dma::total       526854                       # Packet count per connected master and slave (bytes)
system.iobus.pkt_count::total                  665152                       # Packet count per connected master and slave (bytes)
system.iobus.pkt_size_system.bridge.master::system.realview.realview_io.pio          292                       # Cumulative packet size per connected master and slave (bytes)
system.iobus.pkt_size_system.bridge.master::system.realview.uart.pio        57012                       # Cumulative packet size per connected master and slave (bytes)
system.iobus.pkt_size_system.bridge.master::system.realview.pci_host.pio          411                       # Cumulative packet size per connected master and slave (bytes)
system.iobus.pkt_size_system.bridge.master::system.realview.energy_ctrl.pio            4                       # Cumulative packet size per connected master and slave (bytes)
system.iobus.pkt_size_system.bridge.master::system.realview.vio0.pio           12                       # Cumulative packet size per connected master and slave (bytes)
system.iobus.pkt_size_system.bridge.master::system.realview.vio1.pio           12                       # Cumulative packet size per connected master and slave (bytes)
system.iobus.pkt_size_system.bridge.master::system.pci_ide.pio        47259                       # Cumulative packet size per connected master and slave (bytes)
system.iobus.pkt_size_system.bridge.master::total       105002                       # Cumulative packet size per connected master and slave (bytes)
system.iobus.pkt_size_system.pci_ide.dma::system.iocache.cpu_side     16722072                       # Cumulative packet size per connected master and slave (bytes)
system.iobus.pkt_size_system.pci_ide.dma::total     16722072                       # Cumulative packet size per connected master and slave (bytes)
system.iobus.pkt_size::total                 16827074                       # Cumulative packet size per connected master and slave (bytes)
system.cpu_clk_domain.clock                      1580                       # Clock period in ticks
system.pci_ide.pwrStateResidencyTicks::UNDEFINED 1904247544700                       # Cumulative time (in ticks) in various power states

---------- End Simulation Statistics   ----------
