
---------- Begin Simulation Statistics ----------
final_tick                               16320505580000                       # Number of ticks from beginning of simulation (restored from checkpoints and never reset)
host_inst_rate                                 330306                       # Simulator instruction rate (inst/s)
host_mem_usage                              136851956                       # Number of bytes of host memory used
host_op_rate                                   400035                       # Simulator op (including micro ops) rate (op/s)
host_seconds                                   289.48                       # Real time elapsed on the host
host_tick_rate                            52747392152                       # Simulator tick rate (ticks/s)
sim_freq                                 1000000000000                       # Frequency of simulated ticks
sim_insts                                    95616631                       # Number of instructions simulated
sim_ops                                     115801972                       # Number of ops (including micro ops) simulated
sim_seconds                                 15.269283                       # Number of seconds simulated
sim_ticks                                15269282555500                       # Number of ticks simulated
system.cpu0.Branches                                1                       # Number of branches fetched
system.cpu0.committedInsts                          4                       # Number of instructions committed
system.cpu0.committedOps                            4                       # Number of ops (including micro ops) committed
system.cpu0.dtb.accesses                            2                       # DTB accesses
system.cpu0.dtb.align_faults                        0                       # Number of TLB faults due to alignment restrictions
system.cpu0.dtb.domain_faults                       0                       # Number of TLB faults due to domain restrictions
system.cpu0.dtb.flush_entries                       2                       # Number of entries that have been flushed from TLB
system.cpu0.dtb.flush_tlb                           2                       # Number of times complete TLB was flushed
system.cpu0.dtb.flush_tlb_asid                      0                       # Number of times TLB was flushed by ASID
system.cpu0.dtb.flush_tlb_mva                       0                       # Number of times TLB was flushed by MVA
system.cpu0.dtb.flush_tlb_mva_asid                  0                       # Number of times TLB was flushed by MVA & ASID
system.cpu0.dtb.hits                                0                       # DTB hits
system.cpu0.dtb.inst_accesses                       0                       # ITB inst accesses
system.cpu0.dtb.inst_hits                           0                       # ITB inst hits
system.cpu0.dtb.inst_misses                         0                       # ITB inst misses
system.cpu0.dtb.misses                              2                       # DTB misses
system.cpu0.dtb.perms_faults                        0                       # Number of TLB faults due to permissions restrictions
system.cpu0.dtb.prefetch_faults                     0                       # Number of TLB faults due to prefetch
system.cpu0.dtb.read_accesses                       2                       # DTB read accesses
system.cpu0.dtb.read_hits                           0                       # DTB read hits
system.cpu0.dtb.read_misses                         2                       # DTB read misses
system.cpu0.dtb.stage2_mmu.stage2_tlb.accesses            0                       # DTB accesses
system.cpu0.dtb.stage2_mmu.stage2_tlb.align_faults            0                       # Number of TLB faults due to alignment restrictions
system.cpu0.dtb.stage2_mmu.stage2_tlb.domain_faults            0                       # Number of TLB faults due to domain restrictions
system.cpu0.dtb.stage2_mmu.stage2_tlb.flush_entries            0                       # Number of entries that have been flushed from TLB
system.cpu0.dtb.stage2_mmu.stage2_tlb.flush_tlb            0                       # Number of times complete TLB was flushed
system.cpu0.dtb.stage2_mmu.stage2_tlb.flush_tlb_asid            0                       # Number of times TLB was flushed by ASID
system.cpu0.dtb.stage2_mmu.stage2_tlb.flush_tlb_mva            0                       # Number of times TLB was flushed by MVA
system.cpu0.dtb.stage2_mmu.stage2_tlb.flush_tlb_mva_asid            0                       # Number of times TLB was flushed by MVA & ASID
system.cpu0.dtb.stage2_mmu.stage2_tlb.hits            0                       # DTB hits
system.cpu0.dtb.stage2_mmu.stage2_tlb.inst_accesses            0                       # ITB inst accesses
system.cpu0.dtb.stage2_mmu.stage2_tlb.inst_hits            0                       # ITB inst hits
system.cpu0.dtb.stage2_mmu.stage2_tlb.inst_misses            0                       # ITB inst misses
system.cpu0.dtb.stage2_mmu.stage2_tlb.misses            0                       # DTB misses
system.cpu0.dtb.stage2_mmu.stage2_tlb.perms_faults            0                       # Number of TLB faults due to permissions restrictions
system.cpu0.dtb.stage2_mmu.stage2_tlb.prefetch_faults            0                       # Number of TLB faults due to prefetch
system.cpu0.dtb.stage2_mmu.stage2_tlb.read_accesses            0                       # DTB read accesses
system.cpu0.dtb.stage2_mmu.stage2_tlb.read_hits            0                       # DTB read hits
system.cpu0.dtb.stage2_mmu.stage2_tlb.read_misses            0                       # DTB read misses
system.cpu0.dtb.stage2_mmu.stage2_tlb.walker.walkRequestOrigin_Requested::Data            0                       # Table walker requests started/completed, data/inst
system.cpu0.dtb.stage2_mmu.stage2_tlb.walker.walkRequestOrigin_Requested::Inst            0                       # Table walker requests started/completed, data/inst
system.cpu0.dtb.stage2_mmu.stage2_tlb.walker.walkRequestOrigin_Requested::total            0                       # Table walker requests started/completed, data/inst
system.cpu0.dtb.stage2_mmu.stage2_tlb.walker.walkRequestOrigin_Completed::Data            0                       # Table walker requests started/completed, data/inst
system.cpu0.dtb.stage2_mmu.stage2_tlb.walker.walkRequestOrigin_Completed::Inst            0                       # Table walker requests started/completed, data/inst
system.cpu0.dtb.stage2_mmu.stage2_tlb.walker.walkRequestOrigin_Completed::total            0                       # Table walker requests started/completed, data/inst
system.cpu0.dtb.stage2_mmu.stage2_tlb.walker.walkRequestOrigin::total            0                       # Table walker requests started/completed, data/inst
system.cpu0.dtb.stage2_mmu.stage2_tlb.walker.walks            0                       # Table walker walks requested
system.cpu0.dtb.stage2_mmu.stage2_tlb.write_accesses            0                       # DTB write accesses
system.cpu0.dtb.stage2_mmu.stage2_tlb.write_hits            0                       # DTB write hits
system.cpu0.dtb.stage2_mmu.stage2_tlb.write_misses            0                       # DTB write misses
system.cpu0.dtb.walker.walkPageSizes::4K            2    100.00%    100.00% # Table walker page sizes translated
system.cpu0.dtb.walker.walkPageSizes::total            2                       # Table walker page sizes translated
system.cpu0.dtb.walker.walkRequestOrigin_Requested::Data            2                       # Table walker requests started/completed, data/inst
system.cpu0.dtb.walker.walkRequestOrigin_Requested::Inst            0                       # Table walker requests started/completed, data/inst
system.cpu0.dtb.walker.walkRequestOrigin_Requested::total            2                       # Table walker requests started/completed, data/inst
system.cpu0.dtb.walker.walkRequestOrigin_Completed::Data            2                       # Table walker requests started/completed, data/inst
system.cpu0.dtb.walker.walkRequestOrigin_Completed::Inst            0                       # Table walker requests started/completed, data/inst
system.cpu0.dtb.walker.walkRequestOrigin_Completed::total            2                       # Table walker requests started/completed, data/inst
system.cpu0.dtb.walker.walkRequestOrigin::total            4                       # Table walker requests started/completed, data/inst
system.cpu0.dtb.walker.walkWaitTime::samples            2                       # Table walker wait (enqueue to first request) latency
system.cpu0.dtb.walker.walkWaitTime::0              2    100.00%    100.00% # Table walker wait (enqueue to first request) latency
system.cpu0.dtb.walker.walkWaitTime::total            2                       # Table walker wait (enqueue to first request) latency
system.cpu0.dtb.walker.walks                        2                       # Table walker walks requested
system.cpu0.dtb.walker.walksLong                    2                       # Table walker walks initiated with long descriptors
system.cpu0.dtb.walker.walksPending::samples  -1043953020                       # Table walker pending requests distribution
system.cpu0.dtb.walker.walksPending::mean    -0.000004                       # Table walker pending requests distribution
system.cpu0.dtb.walker.walksPending::0    -1043957520    100.00%    100.00% # Table walker pending requests distribution
system.cpu0.dtb.walker.walksPending::1           4500     -0.00%    100.00% # Table walker pending requests distribution
system.cpu0.dtb.walker.walksPending::total  -1043953020                       # Table walker pending requests distribution
system.cpu0.dtb.write_accesses                      0                       # DTB write accesses
system.cpu0.dtb.write_hits                          0                       # DTB write hits
system.cpu0.dtb.write_misses                        0                       # DTB write misses
system.cpu0.idle_fraction                           0                       # Percentage of idle cycles
system.cpu0.itb.accesses                            4                       # DTB accesses
system.cpu0.itb.align_faults                        0                       # Number of TLB faults due to alignment restrictions
system.cpu0.itb.domain_faults                       0                       # Number of TLB faults due to domain restrictions
system.cpu0.itb.flush_entries                       2                       # Number of entries that have been flushed from TLB
system.cpu0.itb.flush_tlb                           2                       # Number of times complete TLB was flushed
system.cpu0.itb.flush_tlb_asid                      0                       # Number of times TLB was flushed by ASID
system.cpu0.itb.flush_tlb_mva                       0                       # Number of times TLB was flushed by MVA
system.cpu0.itb.flush_tlb_mva_asid                  0                       # Number of times TLB was flushed by MVA & ASID
system.cpu0.itb.hits                                2                       # DTB hits
system.cpu0.itb.inst_accesses                       4                       # ITB inst accesses
system.cpu0.itb.inst_hits                           2                       # ITB inst hits
system.cpu0.itb.inst_misses                         2                       # ITB inst misses
system.cpu0.itb.misses                              2                       # DTB misses
system.cpu0.itb.perms_faults                        0                       # Number of TLB faults due to permissions restrictions
system.cpu0.itb.prefetch_faults                     0                       # Number of TLB faults due to prefetch
system.cpu0.itb.read_accesses                       0                       # DTB read accesses
system.cpu0.itb.read_hits                           0                       # DTB read hits
system.cpu0.itb.read_misses                         0                       # DTB read misses
system.cpu0.itb.stage2_mmu.stage2_tlb.accesses            0                       # DTB accesses
system.cpu0.itb.stage2_mmu.stage2_tlb.align_faults            0                       # Number of TLB faults due to alignment restrictions
system.cpu0.itb.stage2_mmu.stage2_tlb.domain_faults            0                       # Number of TLB faults due to domain restrictions
system.cpu0.itb.stage2_mmu.stage2_tlb.flush_entries            0                       # Number of entries that have been flushed from TLB
system.cpu0.itb.stage2_mmu.stage2_tlb.flush_tlb            0                       # Number of times complete TLB was flushed
system.cpu0.itb.stage2_mmu.stage2_tlb.flush_tlb_asid            0                       # Number of times TLB was flushed by ASID
system.cpu0.itb.stage2_mmu.stage2_tlb.flush_tlb_mva            0                       # Number of times TLB was flushed by MVA
system.cpu0.itb.stage2_mmu.stage2_tlb.flush_tlb_mva_asid            0                       # Number of times TLB was flushed by MVA & ASID
system.cpu0.itb.stage2_mmu.stage2_tlb.hits            0                       # DTB hits
system.cpu0.itb.stage2_mmu.stage2_tlb.inst_accesses            0                       # ITB inst accesses
system.cpu0.itb.stage2_mmu.stage2_tlb.inst_hits            0                       # ITB inst hits
system.cpu0.itb.stage2_mmu.stage2_tlb.inst_misses            0                       # ITB inst misses
system.cpu0.itb.stage2_mmu.stage2_tlb.misses            0                       # DTB misses
system.cpu0.itb.stage2_mmu.stage2_tlb.perms_faults            0                       # Number of TLB faults due to permissions restrictions
system.cpu0.itb.stage2_mmu.stage2_tlb.prefetch_faults            0                       # Number of TLB faults due to prefetch
system.cpu0.itb.stage2_mmu.stage2_tlb.read_accesses            0                       # DTB read accesses
system.cpu0.itb.stage2_mmu.stage2_tlb.read_hits            0                       # DTB read hits
system.cpu0.itb.stage2_mmu.stage2_tlb.read_misses            0                       # DTB read misses
system.cpu0.itb.stage2_mmu.stage2_tlb.walker.walkRequestOrigin_Requested::Data            0                       # Table walker requests started/completed, data/inst
system.cpu0.itb.stage2_mmu.stage2_tlb.walker.walkRequestOrigin_Requested::Inst            0                       # Table walker requests started/completed, data/inst
system.cpu0.itb.stage2_mmu.stage2_tlb.walker.walkRequestOrigin_Requested::total            0                       # Table walker requests started/completed, data/inst
system.cpu0.itb.stage2_mmu.stage2_tlb.walker.walkRequestOrigin_Completed::Data            0                       # Table walker requests started/completed, data/inst
system.cpu0.itb.stage2_mmu.stage2_tlb.walker.walkRequestOrigin_Completed::Inst            0                       # Table walker requests started/completed, data/inst
system.cpu0.itb.stage2_mmu.stage2_tlb.walker.walkRequestOrigin_Completed::total            0                       # Table walker requests started/completed, data/inst
system.cpu0.itb.stage2_mmu.stage2_tlb.walker.walkRequestOrigin::total            0                       # Table walker requests started/completed, data/inst
system.cpu0.itb.stage2_mmu.stage2_tlb.walker.walks            0                       # Table walker walks requested
system.cpu0.itb.stage2_mmu.stage2_tlb.write_accesses            0                       # DTB write accesses
system.cpu0.itb.stage2_mmu.stage2_tlb.write_hits            0                       # DTB write hits
system.cpu0.itb.stage2_mmu.stage2_tlb.write_misses            0                       # DTB write misses
system.cpu0.itb.walker.walkPageSizes::4K            2    100.00%    100.00% # Table walker page sizes translated
system.cpu0.itb.walker.walkPageSizes::total            2                       # Table walker page sizes translated
system.cpu0.itb.walker.walkRequestOrigin_Requested::Data            0                       # Table walker requests started/completed, data/inst
system.cpu0.itb.walker.walkRequestOrigin_Requested::Inst            2                       # Table walker requests started/completed, data/inst
system.cpu0.itb.walker.walkRequestOrigin_Requested::total            2                       # Table walker requests started/completed, data/inst
system.cpu0.itb.walker.walkRequestOrigin_Completed::Data            0                       # Table walker requests started/completed, data/inst
system.cpu0.itb.walker.walkRequestOrigin_Completed::Inst            2                       # Table walker requests started/completed, data/inst
system.cpu0.itb.walker.walkRequestOrigin_Completed::total            2                       # Table walker requests started/completed, data/inst
system.cpu0.itb.walker.walkRequestOrigin::total            4                       # Table walker requests started/completed, data/inst
system.cpu0.itb.walker.walkWaitTime::samples            2                       # Table walker wait (enqueue to first request) latency
system.cpu0.itb.walker.walkWaitTime::0              2    100.00%    100.00% # Table walker wait (enqueue to first request) latency
system.cpu0.itb.walker.walkWaitTime::total            2                       # Table walker wait (enqueue to first request) latency
system.cpu0.itb.walker.walks                        2                       # Table walker walks requested
system.cpu0.itb.walker.walksLong                    2                       # Table walker walks initiated with long descriptors
system.cpu0.itb.walker.walksPending::samples  -1043953020                       # Table walker pending requests distribution
system.cpu0.itb.walker.walksPending::mean    -0.000006                       # Table walker pending requests distribution
system.cpu0.itb.walker.walksPending::0    -1043959520    100.00%    100.00% # Table walker pending requests distribution
system.cpu0.itb.walker.walksPending::1           6500     -0.00%    100.00% # Table walker pending requests distribution
system.cpu0.itb.walker.walksPending::total  -1043953020                       # Table walker pending requests distribution
system.cpu0.itb.write_accesses                      0                       # DTB write accesses
system.cpu0.itb.write_hits                          0                       # DTB write hits
system.cpu0.itb.write_misses                        0                       # DTB write misses
system.cpu0.kern.inst.arm                           0                       # number of arm instructions executed
system.cpu0.kern.inst.quiesce                     644                       # number of quiesce instructions executed
system.cpu0.not_idle_fraction                       1                       # Percentage of non-idle cycles
system.cpu0.numCycles                               4                       # number of cpu cycles simulated
system.cpu0.numWorkItemsCompleted                   0                       # number of work items this cpu completed
system.cpu0.numWorkItemsStarted                     0                       # number of work items this cpu started
system.cpu0.num_busy_cycles                         4                       # Number of busy cycles
system.cpu0.num_conditional_control_insts            0                       # number of instructions that are conditional controls
system.cpu0.num_fp_alu_accesses                     0                       # Number of float alu accesses
system.cpu0.num_fp_insts                            0                       # number of float instructions
system.cpu0.num_fp_register_reads                   0                       # number of times the floating registers were read
system.cpu0.num_fp_register_writes                  0                       # number of times the floating registers were written
system.cpu0.num_func_calls                          1                       # number of times a function call or return occured
system.cpu0.num_idle_cycles                         0                       # Number of idle cycles
system.cpu0.num_int_alu_accesses                    4                       # Number of integer alu accesses
system.cpu0.num_int_insts                           4                       # number of integer instructions
system.cpu0.num_int_register_reads                  5                       # number of times the integer registers were read
system.cpu0.num_int_register_writes                 3                       # number of times the integer registers were written
system.cpu0.num_load_insts                          2                       # Number of load instructions
system.cpu0.num_mem_refs                            2                       # number of memory refs
system.cpu0.num_store_insts                         0                       # Number of store instructions
system.cpu0.num_vec_alu_accesses                    0                       # Number of vector alu accesses
system.cpu0.num_vec_insts                           0                       # number of vector instructions
system.cpu0.num_vec_register_reads                  0                       # number of times the vector registers were read
system.cpu0.num_vec_register_writes                 0                       # number of times the vector registers were written
system.cpu0.op_class::No_OpClass                    0      0.00%      0.00% # Class of executed instruction
system.cpu0.op_class::IntAlu                        2     50.00%     50.00% # Class of executed instruction
system.cpu0.op_class::IntMult                       0      0.00%     50.00% # Class of executed instruction
system.cpu0.op_class::IntDiv                        0      0.00%     50.00% # Class of executed instruction
system.cpu0.op_class::FloatAdd                      0      0.00%     50.00% # Class of executed instruction
system.cpu0.op_class::FloatCmp                      0      0.00%     50.00% # Class of executed instruction
system.cpu0.op_class::FloatCvt                      0      0.00%     50.00% # Class of executed instruction
system.cpu0.op_class::FloatMult                     0      0.00%     50.00% # Class of executed instruction
system.cpu0.op_class::FloatMultAcc                  0      0.00%     50.00% # Class of executed instruction
system.cpu0.op_class::FloatDiv                      0      0.00%     50.00% # Class of executed instruction
system.cpu0.op_class::FloatMisc                     0      0.00%     50.00% # Class of executed instruction
system.cpu0.op_class::FloatSqrt                     0      0.00%     50.00% # Class of executed instruction
system.cpu0.op_class::SimdAdd                       0      0.00%     50.00% # Class of executed instruction
system.cpu0.op_class::SimdAddAcc                    0      0.00%     50.00% # Class of executed instruction
system.cpu0.op_class::SimdAlu                       0      0.00%     50.00% # Class of executed instruction
system.cpu0.op_class::SimdCmp                       0      0.00%     50.00% # Class of executed instruction
system.cpu0.op_class::SimdCvt                       0      0.00%     50.00% # Class of executed instruction
system.cpu0.op_class::SimdMisc                      0      0.00%     50.00% # Class of executed instruction
system.cpu0.op_class::SimdMult                      0      0.00%     50.00% # Class of executed instruction
system.cpu0.op_class::SimdMultAcc                   0      0.00%     50.00% # Class of executed instruction
system.cpu0.op_class::SimdShift                     0      0.00%     50.00% # Class of executed instruction
system.cpu0.op_class::SimdShiftAcc                  0      0.00%     50.00% # Class of executed instruction
system.cpu0.op_class::SimdDiv                       0      0.00%     50.00% # Class of executed instruction
system.cpu0.op_class::SimdSqrt                      0      0.00%     50.00% # Class of executed instruction
system.cpu0.op_class::SimdFloatAdd                  0      0.00%     50.00% # Class of executed instruction
system.cpu0.op_class::SimdFloatAlu                  0      0.00%     50.00% # Class of executed instruction
system.cpu0.op_class::SimdFloatCmp                  0      0.00%     50.00% # Class of executed instruction
system.cpu0.op_class::SimdFloatCvt                  0      0.00%     50.00% # Class of executed instruction
system.cpu0.op_class::SimdFloatDiv                  0      0.00%     50.00% # Class of executed instruction
system.cpu0.op_class::SimdFloatMisc                 0      0.00%     50.00% # Class of executed instruction
system.cpu0.op_class::SimdFloatMult                 0      0.00%     50.00% # Class of executed instruction
system.cpu0.op_class::SimdFloatMultAcc              0      0.00%     50.00% # Class of executed instruction
system.cpu0.op_class::SimdFloatSqrt                 0      0.00%     50.00% # Class of executed instruction
system.cpu0.op_class::SimdReduceAdd                 0      0.00%     50.00% # Class of executed instruction
system.cpu0.op_class::SimdReduceAlu                 0      0.00%     50.00% # Class of executed instruction
system.cpu0.op_class::SimdReduceCmp                 0      0.00%     50.00% # Class of executed instruction
system.cpu0.op_class::SimdFloatReduceAdd            0      0.00%     50.00% # Class of executed instruction
system.cpu0.op_class::SimdFloatReduceCmp            0      0.00%     50.00% # Class of executed instruction
system.cpu0.op_class::SimdAes                       0      0.00%     50.00% # Class of executed instruction
system.cpu0.op_class::SimdAesMix                    0      0.00%     50.00% # Class of executed instruction
system.cpu0.op_class::SimdSha1Hash                  0      0.00%     50.00% # Class of executed instruction
system.cpu0.op_class::SimdSha1Hash2                 0      0.00%     50.00% # Class of executed instruction
system.cpu0.op_class::SimdSha256Hash                0      0.00%     50.00% # Class of executed instruction
system.cpu0.op_class::SimdSha256Hash2               0      0.00%     50.00% # Class of executed instruction
system.cpu0.op_class::SimdShaSigma2                 0      0.00%     50.00% # Class of executed instruction
system.cpu0.op_class::SimdShaSigma3                 0      0.00%     50.00% # Class of executed instruction
system.cpu0.op_class::SimdPredAlu                   0      0.00%     50.00% # Class of executed instruction
system.cpu0.op_class::MemRead                       2     50.00%    100.00% # Class of executed instruction
system.cpu0.op_class::MemWrite                      0      0.00%    100.00% # Class of executed instruction
system.cpu0.op_class::FloatMemRead                  0      0.00%    100.00% # Class of executed instruction
system.cpu0.op_class::FloatMemWrite                 0      0.00%    100.00% # Class of executed instruction
system.cpu0.op_class::IprAccess                     0      0.00%    100.00% # Class of executed instruction
system.cpu0.op_class::InstPrefetch                  0      0.00%    100.00% # Class of executed instruction
system.cpu0.op_class::total                         4                       # Class of executed instruction
system.cpu1.committedInsts                          0                       # Number of instructions committed
system.cpu1.committedOps                            0                       # Number of ops (including micro ops) committed
system.cpu1.dtb.accesses                            0                       # DTB accesses
system.cpu1.dtb.align_faults                        0                       # Number of TLB faults due to alignment restrictions
system.cpu1.dtb.domain_faults                       0                       # Number of TLB faults due to domain restrictions
system.cpu1.dtb.flush_entries                       0                       # Number of entries that have been flushed from TLB
system.cpu1.dtb.flush_tlb                           2                       # Number of times complete TLB was flushed
system.cpu1.dtb.flush_tlb_asid                      0                       # Number of times TLB was flushed by ASID
system.cpu1.dtb.flush_tlb_mva                       0                       # Number of times TLB was flushed by MVA
system.cpu1.dtb.flush_tlb_mva_asid                  0                       # Number of times TLB was flushed by MVA & ASID
system.cpu1.dtb.hits                                0                       # DTB hits
system.cpu1.dtb.inst_accesses                       0                       # ITB inst accesses
system.cpu1.dtb.inst_hits                           0                       # ITB inst hits
system.cpu1.dtb.inst_misses                         0                       # ITB inst misses
system.cpu1.dtb.misses                              0                       # DTB misses
system.cpu1.dtb.perms_faults                        0                       # Number of TLB faults due to permissions restrictions
system.cpu1.dtb.prefetch_faults                     0                       # Number of TLB faults due to prefetch
system.cpu1.dtb.read_accesses                       0                       # DTB read accesses
system.cpu1.dtb.read_hits                           0                       # DTB read hits
system.cpu1.dtb.read_misses                         0                       # DTB read misses
system.cpu1.dtb.stage2_mmu.stage2_tlb.accesses            0                       # DTB accesses
system.cpu1.dtb.stage2_mmu.stage2_tlb.align_faults            0                       # Number of TLB faults due to alignment restrictions
system.cpu1.dtb.stage2_mmu.stage2_tlb.domain_faults            0                       # Number of TLB faults due to domain restrictions
system.cpu1.dtb.stage2_mmu.stage2_tlb.flush_entries            0                       # Number of entries that have been flushed from TLB
system.cpu1.dtb.stage2_mmu.stage2_tlb.flush_tlb            0                       # Number of times complete TLB was flushed
system.cpu1.dtb.stage2_mmu.stage2_tlb.flush_tlb_asid            0                       # Number of times TLB was flushed by ASID
system.cpu1.dtb.stage2_mmu.stage2_tlb.flush_tlb_mva            0                       # Number of times TLB was flushed by MVA
system.cpu1.dtb.stage2_mmu.stage2_tlb.flush_tlb_mva_asid            0                       # Number of times TLB was flushed by MVA & ASID
system.cpu1.dtb.stage2_mmu.stage2_tlb.hits            0                       # DTB hits
system.cpu1.dtb.stage2_mmu.stage2_tlb.inst_accesses            0                       # ITB inst accesses
system.cpu1.dtb.stage2_mmu.stage2_tlb.inst_hits            0                       # ITB inst hits
system.cpu1.dtb.stage2_mmu.stage2_tlb.inst_misses            0                       # ITB inst misses
system.cpu1.dtb.stage2_mmu.stage2_tlb.misses            0                       # DTB misses
system.cpu1.dtb.stage2_mmu.stage2_tlb.perms_faults            0                       # Number of TLB faults due to permissions restrictions
system.cpu1.dtb.stage2_mmu.stage2_tlb.prefetch_faults            0                       # Number of TLB faults due to prefetch
system.cpu1.dtb.stage2_mmu.stage2_tlb.read_accesses            0                       # DTB read accesses
system.cpu1.dtb.stage2_mmu.stage2_tlb.read_hits            0                       # DTB read hits
system.cpu1.dtb.stage2_mmu.stage2_tlb.read_misses            0                       # DTB read misses
system.cpu1.dtb.stage2_mmu.stage2_tlb.walker.walkRequestOrigin_Requested::Data            0                       # Table walker requests started/completed, data/inst
system.cpu1.dtb.stage2_mmu.stage2_tlb.walker.walkRequestOrigin_Requested::Inst            0                       # Table walker requests started/completed, data/inst
system.cpu1.dtb.stage2_mmu.stage2_tlb.walker.walkRequestOrigin_Requested::total            0                       # Table walker requests started/completed, data/inst
system.cpu1.dtb.stage2_mmu.stage2_tlb.walker.walkRequestOrigin_Completed::Data            0                       # Table walker requests started/completed, data/inst
system.cpu1.dtb.stage2_mmu.stage2_tlb.walker.walkRequestOrigin_Completed::Inst            0                       # Table walker requests started/completed, data/inst
system.cpu1.dtb.stage2_mmu.stage2_tlb.walker.walkRequestOrigin_Completed::total            0                       # Table walker requests started/completed, data/inst
system.cpu1.dtb.stage2_mmu.stage2_tlb.walker.walkRequestOrigin::total            0                       # Table walker requests started/completed, data/inst
system.cpu1.dtb.stage2_mmu.stage2_tlb.walker.walks            0                       # Table walker walks requested
system.cpu1.dtb.stage2_mmu.stage2_tlb.write_accesses            0                       # DTB write accesses
system.cpu1.dtb.stage2_mmu.stage2_tlb.write_hits            0                       # DTB write hits
system.cpu1.dtb.stage2_mmu.stage2_tlb.write_misses            0                       # DTB write misses
system.cpu1.dtb.walker.walkRequestOrigin_Requested::Data            0                       # Table walker requests started/completed, data/inst
system.cpu1.dtb.walker.walkRequestOrigin_Requested::Inst            0                       # Table walker requests started/completed, data/inst
system.cpu1.dtb.walker.walkRequestOrigin_Requested::total            0                       # Table walker requests started/completed, data/inst
system.cpu1.dtb.walker.walkRequestOrigin_Completed::Data            0                       # Table walker requests started/completed, data/inst
system.cpu1.dtb.walker.walkRequestOrigin_Completed::Inst            0                       # Table walker requests started/completed, data/inst
system.cpu1.dtb.walker.walkRequestOrigin_Completed::total            0                       # Table walker requests started/completed, data/inst
system.cpu1.dtb.walker.walkRequestOrigin::total            0                       # Table walker requests started/completed, data/inst
system.cpu1.dtb.walker.walks                        0                       # Table walker walks requested
system.cpu1.dtb.write_accesses                      0                       # DTB write accesses
system.cpu1.dtb.write_hits                          0                       # DTB write hits
system.cpu1.dtb.write_misses                        0                       # DTB write misses
system.cpu1.idle_fraction                    0.000000                       # Percentage of idle cycles
system.cpu1.itb.accesses                            0                       # DTB accesses
system.cpu1.itb.align_faults                        0                       # Number of TLB faults due to alignment restrictions
system.cpu1.itb.domain_faults                       0                       # Number of TLB faults due to domain restrictions
system.cpu1.itb.flush_entries                       0                       # Number of entries that have been flushed from TLB
system.cpu1.itb.flush_tlb                           2                       # Number of times complete TLB was flushed
system.cpu1.itb.flush_tlb_asid                      0                       # Number of times TLB was flushed by ASID
system.cpu1.itb.flush_tlb_mva                       0                       # Number of times TLB was flushed by MVA
system.cpu1.itb.flush_tlb_mva_asid                  0                       # Number of times TLB was flushed by MVA & ASID
system.cpu1.itb.hits                                0                       # DTB hits
system.cpu1.itb.inst_accesses                       0                       # ITB inst accesses
system.cpu1.itb.inst_hits                           0                       # ITB inst hits
system.cpu1.itb.inst_misses                         0                       # ITB inst misses
system.cpu1.itb.misses                              0                       # DTB misses
system.cpu1.itb.perms_faults                        0                       # Number of TLB faults due to permissions restrictions
system.cpu1.itb.prefetch_faults                     0                       # Number of TLB faults due to prefetch
system.cpu1.itb.read_accesses                       0                       # DTB read accesses
system.cpu1.itb.read_hits                           0                       # DTB read hits
system.cpu1.itb.read_misses                         0                       # DTB read misses
system.cpu1.itb.stage2_mmu.stage2_tlb.accesses            0                       # DTB accesses
system.cpu1.itb.stage2_mmu.stage2_tlb.align_faults            0                       # Number of TLB faults due to alignment restrictions
system.cpu1.itb.stage2_mmu.stage2_tlb.domain_faults            0                       # Number of TLB faults due to domain restrictions
system.cpu1.itb.stage2_mmu.stage2_tlb.flush_entries            0                       # Number of entries that have been flushed from TLB
system.cpu1.itb.stage2_mmu.stage2_tlb.flush_tlb            0                       # Number of times complete TLB was flushed
system.cpu1.itb.stage2_mmu.stage2_tlb.flush_tlb_asid            0                       # Number of times TLB was flushed by ASID
system.cpu1.itb.stage2_mmu.stage2_tlb.flush_tlb_mva            0                       # Number of times TLB was flushed by MVA
system.cpu1.itb.stage2_mmu.stage2_tlb.flush_tlb_mva_asid            0                       # Number of times TLB was flushed by MVA & ASID
system.cpu1.itb.stage2_mmu.stage2_tlb.hits            0                       # DTB hits
system.cpu1.itb.stage2_mmu.stage2_tlb.inst_accesses            0                       # ITB inst accesses
system.cpu1.itb.stage2_mmu.stage2_tlb.inst_hits            0                       # ITB inst hits
system.cpu1.itb.stage2_mmu.stage2_tlb.inst_misses            0                       # ITB inst misses
system.cpu1.itb.stage2_mmu.stage2_tlb.misses            0                       # DTB misses
system.cpu1.itb.stage2_mmu.stage2_tlb.perms_faults            0                       # Number of TLB faults due to permissions restrictions
system.cpu1.itb.stage2_mmu.stage2_tlb.prefetch_faults            0                       # Number of TLB faults due to prefetch
system.cpu1.itb.stage2_mmu.stage2_tlb.read_accesses            0                       # DTB read accesses
system.cpu1.itb.stage2_mmu.stage2_tlb.read_hits            0                       # DTB read hits
system.cpu1.itb.stage2_mmu.stage2_tlb.read_misses            0                       # DTB read misses
system.cpu1.itb.stage2_mmu.stage2_tlb.walker.walkRequestOrigin_Requested::Data            0                       # Table walker requests started/completed, data/inst
system.cpu1.itb.stage2_mmu.stage2_tlb.walker.walkRequestOrigin_Requested::Inst            0                       # Table walker requests started/completed, data/inst
system.cpu1.itb.stage2_mmu.stage2_tlb.walker.walkRequestOrigin_Requested::total            0                       # Table walker requests started/completed, data/inst
system.cpu1.itb.stage2_mmu.stage2_tlb.walker.walkRequestOrigin_Completed::Data            0                       # Table walker requests started/completed, data/inst
system.cpu1.itb.stage2_mmu.stage2_tlb.walker.walkRequestOrigin_Completed::Inst            0                       # Table walker requests started/completed, data/inst
system.cpu1.itb.stage2_mmu.stage2_tlb.walker.walkRequestOrigin_Completed::total            0                       # Table walker requests started/completed, data/inst
system.cpu1.itb.stage2_mmu.stage2_tlb.walker.walkRequestOrigin::total            0                       # Table walker requests started/completed, data/inst
system.cpu1.itb.stage2_mmu.stage2_tlb.walker.walks            0                       # Table walker walks requested
system.cpu1.itb.stage2_mmu.stage2_tlb.write_accesses            0                       # DTB write accesses
system.cpu1.itb.stage2_mmu.stage2_tlb.write_hits            0                       # DTB write hits
system.cpu1.itb.stage2_mmu.stage2_tlb.write_misses            0                       # DTB write misses
system.cpu1.itb.walker.walkRequestOrigin_Requested::Data            0                       # Table walker requests started/completed, data/inst
system.cpu1.itb.walker.walkRequestOrigin_Requested::Inst            0                       # Table walker requests started/completed, data/inst
system.cpu1.itb.walker.walkRequestOrigin_Requested::total            0                       # Table walker requests started/completed, data/inst
system.cpu1.itb.walker.walkRequestOrigin_Completed::Data            0                       # Table walker requests started/completed, data/inst
system.cpu1.itb.walker.walkRequestOrigin_Completed::Inst            0                       # Table walker requests started/completed, data/inst
system.cpu1.itb.walker.walkRequestOrigin_Completed::total            0                       # Table walker requests started/completed, data/inst
system.cpu1.itb.walker.walkRequestOrigin::total            0                       # Table walker requests started/completed, data/inst
system.cpu1.itb.walker.walks                        0                       # Table walker walks requested
system.cpu1.itb.write_accesses                      0                       # DTB write accesses
system.cpu1.itb.write_hits                          0                       # DTB write hits
system.cpu1.itb.write_misses                        0                       # DTB write misses
system.cpu1.kern.inst.arm                           0                       # number of arm instructions executed
system.cpu1.kern.inst.quiesce                     450                       # number of quiesce instructions executed
system.cpu1.not_idle_fraction                1.000000                       # Percentage of non-idle cycles
system.cpu1.numCycles                       525611518                       # number of cpu cycles simulated
system.cpu1.numWorkItemsCompleted                   0                       # number of work items this cpu completed
system.cpu1.numWorkItemsStarted                     0                       # number of work items this cpu started
system.cpu1.num_busy_cycles              525611517.655772                       # Number of busy cycles
system.cpu1.num_conditional_control_insts            0                       # number of instructions that are conditional controls
system.cpu1.num_fp_alu_accesses                     0                       # Number of float alu accesses
system.cpu1.num_fp_insts                            0                       # number of float instructions
system.cpu1.num_fp_register_reads                   0                       # number of times the floating registers were read
system.cpu1.num_fp_register_writes                  0                       # number of times the floating registers were written
system.cpu1.num_func_calls                          0                       # number of times a function call or return occured
system.cpu1.num_idle_cycles                  0.344228                       # Number of idle cycles
system.cpu1.num_int_alu_accesses                    0                       # Number of integer alu accesses
system.cpu1.num_int_insts                           0                       # number of integer instructions
system.cpu1.num_int_register_reads                  0                       # number of times the integer registers were read
system.cpu1.num_int_register_writes                 0                       # number of times the integer registers were written
system.cpu1.num_load_insts                          0                       # Number of load instructions
system.cpu1.num_mem_refs                            0                       # number of memory refs
system.cpu1.num_store_insts                         0                       # Number of store instructions
system.cpu1.num_vec_alu_accesses                    0                       # Number of vector alu accesses
system.cpu1.num_vec_insts                           0                       # number of vector instructions
system.cpu1.num_vec_register_reads                  0                       # number of times the vector registers were read
system.cpu1.num_vec_register_writes                 0                       # number of times the vector registers were written
system.cpu1.op_class::No_OpClass                    0                       # Class of executed instruction
system.cpu1.op_class::IntAlu                        0                       # Class of executed instruction
system.cpu1.op_class::IntMult                       0                       # Class of executed instruction
system.cpu1.op_class::IntDiv                        0                       # Class of executed instruction
system.cpu1.op_class::FloatAdd                      0                       # Class of executed instruction
system.cpu1.op_class::FloatCmp                      0                       # Class of executed instruction
system.cpu1.op_class::FloatCvt                      0                       # Class of executed instruction
system.cpu1.op_class::FloatMult                     0                       # Class of executed instruction
system.cpu1.op_class::FloatMultAcc                  0                       # Class of executed instruction
system.cpu1.op_class::FloatDiv                      0                       # Class of executed instruction
system.cpu1.op_class::FloatMisc                     0                       # Class of executed instruction
system.cpu1.op_class::FloatSqrt                     0                       # Class of executed instruction
system.cpu1.op_class::SimdAdd                       0                       # Class of executed instruction
system.cpu1.op_class::SimdAddAcc                    0                       # Class of executed instruction
system.cpu1.op_class::SimdAlu                       0                       # Class of executed instruction
system.cpu1.op_class::SimdCmp                       0                       # Class of executed instruction
system.cpu1.op_class::SimdCvt                       0                       # Class of executed instruction
system.cpu1.op_class::SimdMisc                      0                       # Class of executed instruction
system.cpu1.op_class::SimdMult                      0                       # Class of executed instruction
system.cpu1.op_class::SimdMultAcc                   0                       # Class of executed instruction
system.cpu1.op_class::SimdShift                     0                       # Class of executed instruction
system.cpu1.op_class::SimdShiftAcc                  0                       # Class of executed instruction
system.cpu1.op_class::SimdDiv                       0                       # Class of executed instruction
system.cpu1.op_class::SimdSqrt                      0                       # Class of executed instruction
system.cpu1.op_class::SimdFloatAdd                  0                       # Class of executed instruction
system.cpu1.op_class::SimdFloatAlu                  0                       # Class of executed instruction
system.cpu1.op_class::SimdFloatCmp                  0                       # Class of executed instruction
system.cpu1.op_class::SimdFloatCvt                  0                       # Class of executed instruction
system.cpu1.op_class::SimdFloatDiv                  0                       # Class of executed instruction
system.cpu1.op_class::SimdFloatMisc                 0                       # Class of executed instruction
system.cpu1.op_class::SimdFloatMult                 0                       # Class of executed instruction
system.cpu1.op_class::SimdFloatMultAcc              0                       # Class of executed instruction
system.cpu1.op_class::SimdFloatSqrt                 0                       # Class of executed instruction
system.cpu1.op_class::SimdReduceAdd                 0                       # Class of executed instruction
system.cpu1.op_class::SimdReduceAlu                 0                       # Class of executed instruction
system.cpu1.op_class::SimdReduceCmp                 0                       # Class of executed instruction
system.cpu1.op_class::SimdFloatReduceAdd            0                       # Class of executed instruction
system.cpu1.op_class::SimdFloatReduceCmp            0                       # Class of executed instruction
system.cpu1.op_class::SimdAes                       0                       # Class of executed instruction
system.cpu1.op_class::SimdAesMix                    0                       # Class of executed instruction
system.cpu1.op_class::SimdSha1Hash                  0                       # Class of executed instruction
system.cpu1.op_class::SimdSha1Hash2                 0                       # Class of executed instruction
system.cpu1.op_class::SimdSha256Hash                0                       # Class of executed instruction
system.cpu1.op_class::SimdSha256Hash2               0                       # Class of executed instruction
system.cpu1.op_class::SimdShaSigma2                 0                       # Class of executed instruction
system.cpu1.op_class::SimdShaSigma3                 0                       # Class of executed instruction
system.cpu1.op_class::SimdPredAlu                   0                       # Class of executed instruction
system.cpu1.op_class::MemRead                       0                       # Class of executed instruction
system.cpu1.op_class::MemWrite                      0                       # Class of executed instruction
system.cpu1.op_class::FloatMemRead                  0                       # Class of executed instruction
system.cpu1.op_class::FloatMemWrite                 0                       # Class of executed instruction
system.cpu1.op_class::IprAccess                     0                       # Class of executed instruction
system.cpu1.op_class::InstPrefetch                  0                       # Class of executed instruction
system.cpu1.op_class::total                         0                       # Class of executed instruction
system.cpu2.committedInsts                          0                       # Number of instructions committed
system.cpu2.committedOps                            0                       # Number of ops (including micro ops) committed
system.cpu2.dtb.accesses                            0                       # DTB accesses
system.cpu2.dtb.align_faults                        0                       # Number of TLB faults due to alignment restrictions
system.cpu2.dtb.domain_faults                       0                       # Number of TLB faults due to domain restrictions
system.cpu2.dtb.flush_entries                       0                       # Number of entries that have been flushed from TLB
system.cpu2.dtb.flush_tlb                           2                       # Number of times complete TLB was flushed
system.cpu2.dtb.flush_tlb_asid                      0                       # Number of times TLB was flushed by ASID
system.cpu2.dtb.flush_tlb_mva                       0                       # Number of times TLB was flushed by MVA
system.cpu2.dtb.flush_tlb_mva_asid                  0                       # Number of times TLB was flushed by MVA & ASID
system.cpu2.dtb.hits                                0                       # DTB hits
system.cpu2.dtb.inst_accesses                       0                       # ITB inst accesses
system.cpu2.dtb.inst_hits                           0                       # ITB inst hits
system.cpu2.dtb.inst_misses                         0                       # ITB inst misses
system.cpu2.dtb.misses                              0                       # DTB misses
system.cpu2.dtb.perms_faults                        0                       # Number of TLB faults due to permissions restrictions
system.cpu2.dtb.prefetch_faults                     0                       # Number of TLB faults due to prefetch
system.cpu2.dtb.read_accesses                       0                       # DTB read accesses
system.cpu2.dtb.read_hits                           0                       # DTB read hits
system.cpu2.dtb.read_misses                         0                       # DTB read misses
system.cpu2.dtb.stage2_mmu.stage2_tlb.accesses            0                       # DTB accesses
system.cpu2.dtb.stage2_mmu.stage2_tlb.align_faults            0                       # Number of TLB faults due to alignment restrictions
system.cpu2.dtb.stage2_mmu.stage2_tlb.domain_faults            0                       # Number of TLB faults due to domain restrictions
system.cpu2.dtb.stage2_mmu.stage2_tlb.flush_entries            0                       # Number of entries that have been flushed from TLB
system.cpu2.dtb.stage2_mmu.stage2_tlb.flush_tlb            0                       # Number of times complete TLB was flushed
system.cpu2.dtb.stage2_mmu.stage2_tlb.flush_tlb_asid            0                       # Number of times TLB was flushed by ASID
system.cpu2.dtb.stage2_mmu.stage2_tlb.flush_tlb_mva            0                       # Number of times TLB was flushed by MVA
system.cpu2.dtb.stage2_mmu.stage2_tlb.flush_tlb_mva_asid            0                       # Number of times TLB was flushed by MVA & ASID
system.cpu2.dtb.stage2_mmu.stage2_tlb.hits            0                       # DTB hits
system.cpu2.dtb.stage2_mmu.stage2_tlb.inst_accesses            0                       # ITB inst accesses
system.cpu2.dtb.stage2_mmu.stage2_tlb.inst_hits            0                       # ITB inst hits
system.cpu2.dtb.stage2_mmu.stage2_tlb.inst_misses            0                       # ITB inst misses
system.cpu2.dtb.stage2_mmu.stage2_tlb.misses            0                       # DTB misses
system.cpu2.dtb.stage2_mmu.stage2_tlb.perms_faults            0                       # Number of TLB faults due to permissions restrictions
system.cpu2.dtb.stage2_mmu.stage2_tlb.prefetch_faults            0                       # Number of TLB faults due to prefetch
system.cpu2.dtb.stage2_mmu.stage2_tlb.read_accesses            0                       # DTB read accesses
system.cpu2.dtb.stage2_mmu.stage2_tlb.read_hits            0                       # DTB read hits
system.cpu2.dtb.stage2_mmu.stage2_tlb.read_misses            0                       # DTB read misses
system.cpu2.dtb.stage2_mmu.stage2_tlb.walker.walkRequestOrigin_Requested::Data            0                       # Table walker requests started/completed, data/inst
system.cpu2.dtb.stage2_mmu.stage2_tlb.walker.walkRequestOrigin_Requested::Inst            0                       # Table walker requests started/completed, data/inst
system.cpu2.dtb.stage2_mmu.stage2_tlb.walker.walkRequestOrigin_Requested::total            0                       # Table walker requests started/completed, data/inst
system.cpu2.dtb.stage2_mmu.stage2_tlb.walker.walkRequestOrigin_Completed::Data            0                       # Table walker requests started/completed, data/inst
system.cpu2.dtb.stage2_mmu.stage2_tlb.walker.walkRequestOrigin_Completed::Inst            0                       # Table walker requests started/completed, data/inst
system.cpu2.dtb.stage2_mmu.stage2_tlb.walker.walkRequestOrigin_Completed::total            0                       # Table walker requests started/completed, data/inst
system.cpu2.dtb.stage2_mmu.stage2_tlb.walker.walkRequestOrigin::total            0                       # Table walker requests started/completed, data/inst
system.cpu2.dtb.stage2_mmu.stage2_tlb.walker.walks            0                       # Table walker walks requested
system.cpu2.dtb.stage2_mmu.stage2_tlb.write_accesses            0                       # DTB write accesses
system.cpu2.dtb.stage2_mmu.stage2_tlb.write_hits            0                       # DTB write hits
system.cpu2.dtb.stage2_mmu.stage2_tlb.write_misses            0                       # DTB write misses
system.cpu2.dtb.walker.walkRequestOrigin_Requested::Data            0                       # Table walker requests started/completed, data/inst
system.cpu2.dtb.walker.walkRequestOrigin_Requested::Inst            0                       # Table walker requests started/completed, data/inst
system.cpu2.dtb.walker.walkRequestOrigin_Requested::total            0                       # Table walker requests started/completed, data/inst
system.cpu2.dtb.walker.walkRequestOrigin_Completed::Data            0                       # Table walker requests started/completed, data/inst
system.cpu2.dtb.walker.walkRequestOrigin_Completed::Inst            0                       # Table walker requests started/completed, data/inst
system.cpu2.dtb.walker.walkRequestOrigin_Completed::total            0                       # Table walker requests started/completed, data/inst
system.cpu2.dtb.walker.walkRequestOrigin::total            0                       # Table walker requests started/completed, data/inst
system.cpu2.dtb.walker.walks                        0                       # Table walker walks requested
system.cpu2.dtb.write_accesses                      0                       # DTB write accesses
system.cpu2.dtb.write_hits                          0                       # DTB write hits
system.cpu2.dtb.write_misses                        0                       # DTB write misses
system.cpu2.idle_fraction                    0.000000                       # Percentage of idle cycles
system.cpu2.itb.accesses                            0                       # DTB accesses
system.cpu2.itb.align_faults                        0                       # Number of TLB faults due to alignment restrictions
system.cpu2.itb.domain_faults                       0                       # Number of TLB faults due to domain restrictions
system.cpu2.itb.flush_entries                       0                       # Number of entries that have been flushed from TLB
system.cpu2.itb.flush_tlb                           2                       # Number of times complete TLB was flushed
system.cpu2.itb.flush_tlb_asid                      0                       # Number of times TLB was flushed by ASID
system.cpu2.itb.flush_tlb_mva                       0                       # Number of times TLB was flushed by MVA
system.cpu2.itb.flush_tlb_mva_asid                  0                       # Number of times TLB was flushed by MVA & ASID
system.cpu2.itb.hits                                0                       # DTB hits
system.cpu2.itb.inst_accesses                       0                       # ITB inst accesses
system.cpu2.itb.inst_hits                           0                       # ITB inst hits
system.cpu2.itb.inst_misses                         0                       # ITB inst misses
system.cpu2.itb.misses                              0                       # DTB misses
system.cpu2.itb.perms_faults                        0                       # Number of TLB faults due to permissions restrictions
system.cpu2.itb.prefetch_faults                     0                       # Number of TLB faults due to prefetch
system.cpu2.itb.read_accesses                       0                       # DTB read accesses
system.cpu2.itb.read_hits                           0                       # DTB read hits
system.cpu2.itb.read_misses                         0                       # DTB read misses
system.cpu2.itb.stage2_mmu.stage2_tlb.accesses            0                       # DTB accesses
system.cpu2.itb.stage2_mmu.stage2_tlb.align_faults            0                       # Number of TLB faults due to alignment restrictions
system.cpu2.itb.stage2_mmu.stage2_tlb.domain_faults            0                       # Number of TLB faults due to domain restrictions
system.cpu2.itb.stage2_mmu.stage2_tlb.flush_entries            0                       # Number of entries that have been flushed from TLB
system.cpu2.itb.stage2_mmu.stage2_tlb.flush_tlb            0                       # Number of times complete TLB was flushed
system.cpu2.itb.stage2_mmu.stage2_tlb.flush_tlb_asid            0                       # Number of times TLB was flushed by ASID
system.cpu2.itb.stage2_mmu.stage2_tlb.flush_tlb_mva            0                       # Number of times TLB was flushed by MVA
system.cpu2.itb.stage2_mmu.stage2_tlb.flush_tlb_mva_asid            0                       # Number of times TLB was flushed by MVA & ASID
system.cpu2.itb.stage2_mmu.stage2_tlb.hits            0                       # DTB hits
system.cpu2.itb.stage2_mmu.stage2_tlb.inst_accesses            0                       # ITB inst accesses
system.cpu2.itb.stage2_mmu.stage2_tlb.inst_hits            0                       # ITB inst hits
system.cpu2.itb.stage2_mmu.stage2_tlb.inst_misses            0                       # ITB inst misses
system.cpu2.itb.stage2_mmu.stage2_tlb.misses            0                       # DTB misses
system.cpu2.itb.stage2_mmu.stage2_tlb.perms_faults            0                       # Number of TLB faults due to permissions restrictions
system.cpu2.itb.stage2_mmu.stage2_tlb.prefetch_faults            0                       # Number of TLB faults due to prefetch
system.cpu2.itb.stage2_mmu.stage2_tlb.read_accesses            0                       # DTB read accesses
system.cpu2.itb.stage2_mmu.stage2_tlb.read_hits            0                       # DTB read hits
system.cpu2.itb.stage2_mmu.stage2_tlb.read_misses            0                       # DTB read misses
system.cpu2.itb.stage2_mmu.stage2_tlb.walker.walkRequestOrigin_Requested::Data            0                       # Table walker requests started/completed, data/inst
system.cpu2.itb.stage2_mmu.stage2_tlb.walker.walkRequestOrigin_Requested::Inst            0                       # Table walker requests started/completed, data/inst
system.cpu2.itb.stage2_mmu.stage2_tlb.walker.walkRequestOrigin_Requested::total            0                       # Table walker requests started/completed, data/inst
system.cpu2.itb.stage2_mmu.stage2_tlb.walker.walkRequestOrigin_Completed::Data            0                       # Table walker requests started/completed, data/inst
system.cpu2.itb.stage2_mmu.stage2_tlb.walker.walkRequestOrigin_Completed::Inst            0                       # Table walker requests started/completed, data/inst
system.cpu2.itb.stage2_mmu.stage2_tlb.walker.walkRequestOrigin_Completed::total            0                       # Table walker requests started/completed, data/inst
system.cpu2.itb.stage2_mmu.stage2_tlb.walker.walkRequestOrigin::total            0                       # Table walker requests started/completed, data/inst
system.cpu2.itb.stage2_mmu.stage2_tlb.walker.walks            0                       # Table walker walks requested
system.cpu2.itb.stage2_mmu.stage2_tlb.write_accesses            0                       # DTB write accesses
system.cpu2.itb.stage2_mmu.stage2_tlb.write_hits            0                       # DTB write hits
system.cpu2.itb.stage2_mmu.stage2_tlb.write_misses            0                       # DTB write misses
system.cpu2.itb.walker.walkRequestOrigin_Requested::Data            0                       # Table walker requests started/completed, data/inst
system.cpu2.itb.walker.walkRequestOrigin_Requested::Inst            0                       # Table walker requests started/completed, data/inst
system.cpu2.itb.walker.walkRequestOrigin_Requested::total            0                       # Table walker requests started/completed, data/inst
system.cpu2.itb.walker.walkRequestOrigin_Completed::Data            0                       # Table walker requests started/completed, data/inst
system.cpu2.itb.walker.walkRequestOrigin_Completed::Inst            0                       # Table walker requests started/completed, data/inst
system.cpu2.itb.walker.walkRequestOrigin_Completed::total            0                       # Table walker requests started/completed, data/inst
system.cpu2.itb.walker.walkRequestOrigin::total            0                       # Table walker requests started/completed, data/inst
system.cpu2.itb.walker.walks                        0                       # Table walker walks requested
system.cpu2.itb.write_accesses                      0                       # DTB write accesses
system.cpu2.itb.write_hits                          0                       # DTB write hits
system.cpu2.itb.write_misses                        0                       # DTB write misses
system.cpu2.kern.inst.arm                           0                       # number of arm instructions executed
system.cpu2.kern.inst.quiesce                     576                       # number of quiesce instructions executed
system.cpu2.not_idle_fraction                1.000000                       # Percentage of non-idle cycles
system.cpu2.numCycles                       525611518                       # number of cpu cycles simulated
system.cpu2.numWorkItemsCompleted                   0                       # number of work items this cpu completed
system.cpu2.numWorkItemsStarted                     0                       # number of work items this cpu started
system.cpu2.num_busy_cycles              525611517.655772                       # Number of busy cycles
system.cpu2.num_conditional_control_insts            0                       # number of instructions that are conditional controls
system.cpu2.num_fp_alu_accesses                     0                       # Number of float alu accesses
system.cpu2.num_fp_insts                            0                       # number of float instructions
system.cpu2.num_fp_register_reads                   0                       # number of times the floating registers were read
system.cpu2.num_fp_register_writes                  0                       # number of times the floating registers were written
system.cpu2.num_func_calls                          0                       # number of times a function call or return occured
system.cpu2.num_idle_cycles                  0.344228                       # Number of idle cycles
system.cpu2.num_int_alu_accesses                    0                       # Number of integer alu accesses
system.cpu2.num_int_insts                           0                       # number of integer instructions
system.cpu2.num_int_register_reads                  0                       # number of times the integer registers were read
system.cpu2.num_int_register_writes                 0                       # number of times the integer registers were written
system.cpu2.num_load_insts                          0                       # Number of load instructions
system.cpu2.num_mem_refs                            0                       # number of memory refs
system.cpu2.num_store_insts                         0                       # Number of store instructions
system.cpu2.num_vec_alu_accesses                    0                       # Number of vector alu accesses
system.cpu2.num_vec_insts                           0                       # number of vector instructions
system.cpu2.num_vec_register_reads                  0                       # number of times the vector registers were read
system.cpu2.num_vec_register_writes                 0                       # number of times the vector registers were written
system.cpu2.op_class::No_OpClass                    0                       # Class of executed instruction
system.cpu2.op_class::IntAlu                        0                       # Class of executed instruction
system.cpu2.op_class::IntMult                       0                       # Class of executed instruction
system.cpu2.op_class::IntDiv                        0                       # Class of executed instruction
system.cpu2.op_class::FloatAdd                      0                       # Class of executed instruction
system.cpu2.op_class::FloatCmp                      0                       # Class of executed instruction
system.cpu2.op_class::FloatCvt                      0                       # Class of executed instruction
system.cpu2.op_class::FloatMult                     0                       # Class of executed instruction
system.cpu2.op_class::FloatMultAcc                  0                       # Class of executed instruction
system.cpu2.op_class::FloatDiv                      0                       # Class of executed instruction
system.cpu2.op_class::FloatMisc                     0                       # Class of executed instruction
system.cpu2.op_class::FloatSqrt                     0                       # Class of executed instruction
system.cpu2.op_class::SimdAdd                       0                       # Class of executed instruction
system.cpu2.op_class::SimdAddAcc                    0                       # Class of executed instruction
system.cpu2.op_class::SimdAlu                       0                       # Class of executed instruction
system.cpu2.op_class::SimdCmp                       0                       # Class of executed instruction
system.cpu2.op_class::SimdCvt                       0                       # Class of executed instruction
system.cpu2.op_class::SimdMisc                      0                       # Class of executed instruction
system.cpu2.op_class::SimdMult                      0                       # Class of executed instruction
system.cpu2.op_class::SimdMultAcc                   0                       # Class of executed instruction
system.cpu2.op_class::SimdShift                     0                       # Class of executed instruction
system.cpu2.op_class::SimdShiftAcc                  0                       # Class of executed instruction
system.cpu2.op_class::SimdDiv                       0                       # Class of executed instruction
system.cpu2.op_class::SimdSqrt                      0                       # Class of executed instruction
system.cpu2.op_class::SimdFloatAdd                  0                       # Class of executed instruction
system.cpu2.op_class::SimdFloatAlu                  0                       # Class of executed instruction
system.cpu2.op_class::SimdFloatCmp                  0                       # Class of executed instruction
system.cpu2.op_class::SimdFloatCvt                  0                       # Class of executed instruction
system.cpu2.op_class::SimdFloatDiv                  0                       # Class of executed instruction
system.cpu2.op_class::SimdFloatMisc                 0                       # Class of executed instruction
system.cpu2.op_class::SimdFloatMult                 0                       # Class of executed instruction
system.cpu2.op_class::SimdFloatMultAcc              0                       # Class of executed instruction
system.cpu2.op_class::SimdFloatSqrt                 0                       # Class of executed instruction
system.cpu2.op_class::SimdReduceAdd                 0                       # Class of executed instruction
system.cpu2.op_class::SimdReduceAlu                 0                       # Class of executed instruction
system.cpu2.op_class::SimdReduceCmp                 0                       # Class of executed instruction
system.cpu2.op_class::SimdFloatReduceAdd            0                       # Class of executed instruction
system.cpu2.op_class::SimdFloatReduceCmp            0                       # Class of executed instruction
system.cpu2.op_class::SimdAes                       0                       # Class of executed instruction
system.cpu2.op_class::SimdAesMix                    0                       # Class of executed instruction
system.cpu2.op_class::SimdSha1Hash                  0                       # Class of executed instruction
system.cpu2.op_class::SimdSha1Hash2                 0                       # Class of executed instruction
system.cpu2.op_class::SimdSha256Hash                0                       # Class of executed instruction
system.cpu2.op_class::SimdSha256Hash2               0                       # Class of executed instruction
system.cpu2.op_class::SimdShaSigma2                 0                       # Class of executed instruction
system.cpu2.op_class::SimdShaSigma3                 0                       # Class of executed instruction
system.cpu2.op_class::SimdPredAlu                   0                       # Class of executed instruction
system.cpu2.op_class::MemRead                       0                       # Class of executed instruction
system.cpu2.op_class::MemWrite                      0                       # Class of executed instruction
system.cpu2.op_class::FloatMemRead                  0                       # Class of executed instruction
system.cpu2.op_class::FloatMemWrite                 0                       # Class of executed instruction
system.cpu2.op_class::IprAccess                     0                       # Class of executed instruction
system.cpu2.op_class::InstPrefetch                  0                       # Class of executed instruction
system.cpu2.op_class::total                         0                       # Class of executed instruction
system.membus.snoop_filter.hit_multi_requests        10079                       # Number of requests hitting in the snoop filter with multiple (>1) holders of the requested data.
system.membus.snoop_filter.hit_multi_snoops            0                       # Number of snoops hitting in the snoop filter with multiple (>1) holders of the requested data.
system.membus.snoop_filter.hit_single_requests        89368                       # Number of requests hitting in the snoop filter with a single holder of the requested data.
system.membus.snoop_filter.hit_single_snoops            0                       # Number of snoops hitting in the snoop filter with a single holder of the requested data.
system.membus.snoop_filter.tot_requests        253716                       # Total number of requests made to the snoop filter.
system.membus.snoop_filter.tot_snoops               0                       # Total number of snoops made to the snoop filter.
system.pci_ide.disks0.dma_read_bytes           446464                       # Number of bytes transfered via DMA reads (not PRD).
system.pci_ide.disks0.dma_read_full_pages          109                       # Number of full page size DMA reads (not PRD).
system.pci_ide.disks0.dma_read_txs                109                       # Number of DMA read transactions (not PRD).
system.pci_ide.disks0.dma_write_bytes          966656                       # Number of bytes transfered via DMA writes.
system.pci_ide.disks0.dma_write_full_pages          236                       # Number of full page size DMA writes.
system.pci_ide.disks0.dma_write_txs               236                       # Number of DMA write transactions.
system.pci_ide.disks1.dma_read_bytes             4096                       # Number of bytes transfered via DMA reads (not PRD).
system.pci_ide.disks1.dma_read_full_pages            1                       # Number of full page size DMA reads (not PRD).
system.pci_ide.disks1.dma_read_txs                  1                       # Number of DMA read transactions (not PRD).
system.pci_ide.disks1.dma_write_bytes          341504                       # Number of bytes transfered via DMA writes.
system.pci_ide.disks1.dma_write_full_pages           83                       # Number of full page size DMA writes.
system.pci_ide.disks1.dma_write_txs                85                       # Number of DMA write transactions.
system.switch_cpus0.Branches                  6083039                       # Number of branches fetched
system.switch_cpus0.committedInsts           29460925                       # Number of instructions committed
system.switch_cpus0.committedOps             35648446                       # Number of ops (including micro ops) committed
system.switch_cpus0.dtb.accesses             11964898                       # DTB accesses
system.switch_cpus0.dtb.align_faults                0                       # Number of TLB faults due to alignment restrictions
system.switch_cpus0.dtb.domain_faults               0                       # Number of TLB faults due to domain restrictions
system.switch_cpus0.dtb.flush_entries             382                       # Number of entries that have been flushed from TLB
system.switch_cpus0.dtb.flush_tlb                   0                       # Number of times complete TLB was flushed
system.switch_cpus0.dtb.flush_tlb_asid             42                       # Number of times TLB was flushed by ASID
system.switch_cpus0.dtb.flush_tlb_mva               1                       # Number of times TLB was flushed by MVA
system.switch_cpus0.dtb.flush_tlb_mva_asid        12326                       # Number of times TLB was flushed by MVA & ASID
system.switch_cpus0.dtb.hits                 11946020                       # DTB hits
system.switch_cpus0.dtb.inst_accesses               0                       # ITB inst accesses
system.switch_cpus0.dtb.inst_hits                   0                       # ITB inst hits
system.switch_cpus0.dtb.inst_misses                 0                       # ITB inst misses
system.switch_cpus0.dtb.misses                  18878                       # DTB misses
system.switch_cpus0.dtb.perms_faults              163                       # Number of TLB faults due to permissions restrictions
system.switch_cpus0.dtb.prefetch_faults          1414                       # Number of TLB faults due to prefetch
system.switch_cpus0.dtb.read_accesses         6761651                       # DTB read accesses
system.switch_cpus0.dtb.read_hits             6743964                       # DTB read hits
system.switch_cpus0.dtb.read_misses             17687                       # DTB read misses
system.switch_cpus0.dtb.stage2_mmu.stage2_tlb.accesses            0                       # DTB accesses
system.switch_cpus0.dtb.stage2_mmu.stage2_tlb.align_faults            0                       # Number of TLB faults due to alignment restrictions
system.switch_cpus0.dtb.stage2_mmu.stage2_tlb.domain_faults            0                       # Number of TLB faults due to domain restrictions
system.switch_cpus0.dtb.stage2_mmu.stage2_tlb.flush_entries            0                       # Number of entries that have been flushed from TLB
system.switch_cpus0.dtb.stage2_mmu.stage2_tlb.flush_tlb            0                       # Number of times complete TLB was flushed
system.switch_cpus0.dtb.stage2_mmu.stage2_tlb.flush_tlb_asid            0                       # Number of times TLB was flushed by ASID
system.switch_cpus0.dtb.stage2_mmu.stage2_tlb.flush_tlb_mva            0                       # Number of times TLB was flushed by MVA
system.switch_cpus0.dtb.stage2_mmu.stage2_tlb.flush_tlb_mva_asid            0                       # Number of times TLB was flushed by MVA & ASID
system.switch_cpus0.dtb.stage2_mmu.stage2_tlb.hits            0                       # DTB hits
system.switch_cpus0.dtb.stage2_mmu.stage2_tlb.inst_accesses            0                       # ITB inst accesses
system.switch_cpus0.dtb.stage2_mmu.stage2_tlb.inst_hits            0                       # ITB inst hits
system.switch_cpus0.dtb.stage2_mmu.stage2_tlb.inst_misses            0                       # ITB inst misses
system.switch_cpus0.dtb.stage2_mmu.stage2_tlb.misses            0                       # DTB misses
[...]
system.mem_ctrls.wrPerTurnAround::40-41             4      0.50%     97.15% # Writes before turning the bus around for reads
system.mem_ctrls.wrPerTurnAround::42-43             4      0.50%     97.65% # Writes before turning the bus around for reads
system.mem_ctrls.wrPerTurnAround::44-45             3      0.37%     98.02% # Writes before turning the bus around for reads
system.mem_ctrls.wrPerTurnAround::46-47             2      0.25%     98.27% # Writes before turning the bus around for reads
system.mem_ctrls.wrPerTurnAround::48-49             2      0.25%     98.51% # Writes before turning the bus around for reads
system.mem_ctrls.wrPerTurnAround::50-51             1      0.12%     98.64% # Writes before turning the bus around for reads
system.mem_ctrls.wrPerTurnAround::60-61             3      0.37%     99.01% # Writes before turning the bus around for reads
system.mem_ctrls.wrPerTurnAround::62-63             2      0.25%     99.26% # Writes before turning the bus around for reads
system.mem_ctrls.wrPerTurnAround::64-65             6      0.74%    100.00% # Writes before turning the bus around for reads
system.mem_ctrls.wrPerTurnAround::total           808                       # Writes before turning the bus around for reads
system.mem_ctrls.bytesReadDRAM                7539392                       # Total number of bytes read from DRAM
system.mem_ctrls.bytesReadWrQ                  223552                       # Total number of bytes read from write queue
system.mem_ctrls.bytesWritten                 1306176                       # Total number of bytes written to DRAM
system.mem_ctrls.bytesReadSys                 7762944                       # Total read bytes from the system interface side
system.mem_ctrls.bytesWrittenSys              1307136                       # Total written bytes from the system interface side
system.mem_ctrls.avgRdBW                         0.49                       # Average DRAM read bandwidth in MiByte/s
system.mem_ctrls.avgWrBW                         0.09                       # Average achieved write bandwidth in MiByte/s
system.mem_ctrls.avgRdBWSys                      0.51                       # Average system read bandwidth in MiByte/s
system.mem_ctrls.avgWrBWSys                      0.09                       # Average system write bandwidth in MiByte/s
system.mem_ctrls.peakBW                      12800.00                       # Theoretical peak bandwidth in MiByte/s
system.mem_ctrls.busUtil                         0.00                       # Data bus utilization in percentage
system.mem_ctrls.busUtilRead                     0.00                       # Data bus utilization in percentage for reads
system.mem_ctrls.busUtilWrite                    0.00                       # Data bus utilization in percentage for writes
system.mem_ctrls.totGap                  15269281214000                       # Total gap between requests
system.mem_ctrls.avgGap                  107742599.59                       # Average gap between requests
system.mem_ctrls.masterReadBytes::.switch_cpus0.inst       352128                       # Per-master bytes read from memory
system.mem_ctrls.masterReadBytes::.switch_cpus0.data      3242688                       # Per-master bytes read from memory
system.mem_ctrls.masterReadBytes::.switch_cpus0.dtb.walker        11904                       # Per-master bytes read from memory
system.mem_ctrls.masterReadBytes::.switch_cpus0.itb.walker        12288                       # Per-master bytes read from memory
system.mem_ctrls.masterReadBytes::.switch_cpus1.inst       160064                       # Per-master bytes read from memory
system.mem_ctrls.masterReadBytes::.switch_cpus1.data      1941504                       # Per-master bytes read from memory
system.mem_ctrls.masterReadBytes::.switch_cpus1.dtb.walker        12672                       # Per-master bytes read from memory
system.mem_ctrls.masterReadBytes::.switch_cpus1.itb.walker        15872                       # Per-master bytes read from memory
system.mem_ctrls.masterReadBytes::.switch_cpus2.inst       279104                       # Per-master bytes read from memory
system.mem_ctrls.masterReadBytes::.switch_cpus2.data      1478144                       # Per-master bytes read from memory
system.mem_ctrls.masterReadBytes::.switch_cpus2.dtb.walker        18176                       # Per-master bytes read from memory
system.mem_ctrls.masterReadBytes::.switch_cpus2.itb.walker        14848                       # Per-master bytes read from memory
system.mem_ctrls.masterWriteBytes::.writebacks      1306176                       # Per-master bytes write to memory
system.mem_ctrls.masterReadRate::.switch_cpus0.inst 23061.201383896285                       # Per-master bytes read from memory rate (Bytes/sec)
system.mem_ctrls.masterReadRate::.switch_cpus0.data 212366.755819315353                       # Per-master bytes read from memory rate (Bytes/sec)
system.mem_ctrls.masterReadRate::.switch_cpus0.dtb.walker 779.604408834007                       # Per-master bytes read from memory rate (Bytes/sec)
system.mem_ctrls.masterReadRate::.switch_cpus0.itb.walker 804.752938151233                       # Per-master bytes read from memory rate (Bytes/sec)
system.mem_ctrls.masterReadRate::.switch_cpus1.inst 10482.745303730389                       # Per-master bytes read from memory rate (Bytes/sec)
system.mem_ctrls.masterReadRate::.switch_cpus1.data 127150.964227894889                       # Per-master bytes read from memory rate (Bytes/sec)
system.mem_ctrls.masterReadRate::.switch_cpus1.dtb.walker 829.901467468459                       # Per-master bytes read from memory rate (Bytes/sec)
system.mem_ctrls.masterReadRate::.switch_cpus1.itb.walker 1039.472545112010                       # Per-master bytes read from memory rate (Bytes/sec)
system.mem_ctrls.masterReadRate::.switch_cpus2.inst 18278.789392070466                       # Per-master bytes read from memory rate (Bytes/sec)
system.mem_ctrls.masterReadRate::.switch_cpus2.data 96805.072185108787                       # Per-master bytes read from memory rate (Bytes/sec)
system.mem_ctrls.masterReadRate::.switch_cpus2.dtb.walker 1190.363721015366                       # Per-master bytes read from memory rate (Bytes/sec)
system.mem_ctrls.masterReadRate::.switch_cpus2.itb.walker 972.409800266074                       # Per-master bytes read from memory rate (Bytes/sec)
system.mem_ctrls.masterWriteRate::.writebacks 85542.722472544396                       # Per-master bytes write to memory rate (Bytes/sec)
system.mem_ctrls.masterReadAccesses::.switch_cpus0.inst         5502                       # Per-master read serviced memory accesses
system.mem_ctrls.masterReadAccesses::.switch_cpus0.data        54160                       # Per-master read serviced memory accesses
system.mem_ctrls.masterReadAccesses::.switch_cpus0.dtb.walker          186                       # Per-master read serviced memory accesses
system.mem_ctrls.masterReadAccesses::.switch_cpus0.itb.walker          192                       # Per-master read serviced memory accesses
system.mem_ctrls.masterReadAccesses::.switch_cpus1.inst         2501                       # Per-master read serviced memory accesses
system.mem_ctrls.masterReadAccesses::.switch_cpus1.data        30336                       # Per-master read serviced memory accesses
system.mem_ctrls.masterReadAccesses::.switch_cpus1.dtb.walker          198                       # Per-master read serviced memory accesses
system.mem_ctrls.masterReadAccesses::.switch_cpus1.itb.walker          248                       # Per-master read serviced memory accesses
system.mem_ctrls.masterReadAccesses::.switch_cpus2.inst         4361                       # Per-master read serviced memory accesses
system.mem_ctrls.masterReadAccesses::.switch_cpus2.data        23096                       # Per-master read serviced memory accesses
system.mem_ctrls.masterReadAccesses::.switch_cpus2.dtb.walker          284                       # Per-master read serviced memory accesses
system.mem_ctrls.masterReadAccesses::.switch_cpus2.itb.walker          232                       # Per-master read serviced memory accesses
system.mem_ctrls.masterWriteAccesses::.writebacks        20424                       # Per-master write serviced memory accesses
system.mem_ctrls.masterReadTotalLat::.switch_cpus0.inst    187743250                       # Per-master read total memory access latency
system.mem_ctrls.masterReadTotalLat::.switch_cpus0.data   2021221000                       # Per-master read total memory access latency
system.mem_ctrls.masterReadTotalLat::.switch_cpus0.dtb.walker      6311250                       # Per-master read total memory access latency
system.mem_ctrls.masterReadTotalLat::.switch_cpus0.itb.walker      7302500                       # Per-master read total memory access latency
system.mem_ctrls.masterReadTotalLat::.switch_cpus1.inst     84507500                       # Per-master read total memory access latency
system.mem_ctrls.masterReadTotalLat::.switch_cpus1.data   1133172000                       # Per-master read total memory access latency
system.mem_ctrls.masterReadTotalLat::.switch_cpus1.dtb.walker      6720750                       # Per-master read total memory access latency
system.mem_ctrls.masterReadTotalLat::.switch_cpus1.itb.walker     10140750                       # Per-master read total memory access latency
system.mem_ctrls.masterReadTotalLat::.switch_cpus2.inst    150272250                       # Per-master read total memory access latency
system.mem_ctrls.masterReadTotalLat::.switch_cpus2.data    865294250                       # Per-master read total memory access latency
system.mem_ctrls.masterReadTotalLat::.switch_cpus2.dtb.walker     10182000                       # Per-master read total memory access latency
system.mem_ctrls.masterReadTotalLat::.switch_cpus2.itb.walker      8341750                       # Per-master read total memory access latency
system.mem_ctrls.masterWriteTotalLat::.writebacks 265540436350000                       # Per-master write total memory access latency
system.mem_ctrls.masterReadAvgLat::.switch_cpus0.inst     34122.73                       # Per-master read average memory access latency
system.mem_ctrls.masterReadAvgLat::.switch_cpus0.data     37319.44                       # Per-master read average memory access latency
system.mem_ctrls.masterReadAvgLat::.switch_cpus0.dtb.walker     33931.45                       # Per-master read average memory access latency
system.mem_ctrls.masterReadAvgLat::.switch_cpus0.itb.walker     38033.85                       # Per-master read average memory access latency
system.mem_ctrls.masterReadAvgLat::.switch_cpus1.inst     33789.48                       # Per-master read average memory access latency
system.mem_ctrls.masterReadAvgLat::.switch_cpus1.data     37354.03                       # Per-master read average memory access latency
system.mem_ctrls.masterReadAvgLat::.switch_cpus1.dtb.walker     33943.18                       # Per-master read average memory access latency
system.mem_ctrls.masterReadAvgLat::.switch_cpus1.itb.walker     40890.12                       # Per-master read average memory access latency
system.mem_ctrls.masterReadAvgLat::.switch_cpus2.inst     34458.21                       # Per-master read average memory access latency
system.mem_ctrls.masterReadAvgLat::.switch_cpus2.data     37465.11                       # Per-master read average memory access latency
system.mem_ctrls.masterReadAvgLat::.switch_cpus2.dtb.walker     35852.11                       # Per-master read average memory access latency
system.mem_ctrls.masterReadAvgLat::.switch_cpus2.itb.walker     35955.82                       # Per-master read average memory access latency
system.mem_ctrls.masterWriteAvgLat::.writebacks 13001392300.72                       # Per-master write average memory access latency
system.mem_ctrls.pageHitRate                    19.27                       # Row buffer hit rate, read and write combined
system.mem_ctrls.rank1.actEnergy            389665500                       # Energy for activate commands per rank (pJ)
system.mem_ctrls.rank1.preEnergy            207108330                       # Energy for precharge commands per rank (pJ)
system.mem_ctrls.rank1.readEnergy           411178320                       # Energy for read commands per rank (pJ)
system.mem_ctrls.rank1.writeEnergy           52116480                       # Energy for write commands per rank (pJ)
system.mem_ctrls.rank1.refreshEnergy     1205344074480.000244                       # Energy for refresh commands per rank (pJ)
system.mem_ctrls.rank1.actBackEnergy     313359610140                       # Energy for active background per rank (pJ)
system.mem_ctrls.rank1.preBackEnergy     5599522111680                       # Energy for precharge background per rank (pJ)
system.mem_ctrls.rank1.actPowerDownEnergy            0                       # Energy for active power-down per rank (pJ)
system.mem_ctrls.rank1.prePowerDownEnergy            0                       # Energy for precharge power-down per rank (pJ)
system.mem_ctrls.rank1.selfRefreshEnergy            0                       # Energy for self refresh per rank (pJ)
system.mem_ctrls.rank1.totalEnergy       7119285864930                       # Total energy per rank (pJ)
system.mem_ctrls.rank1.averagePower        466.248878                       # Core power per rank (mW)
system.mem_ctrls.rank1.totalIdleTime                0                       # Total Idle time Per DRAM Rank
system.mem_ctrls.rank1.memoryStateTime::IDLE 14554447897250                       # Time in different power states
system.mem_ctrls.rank1.memoryStateTime::REF 509874820000                       # Time in different power states
system.mem_ctrls.rank1.memoryStateTime::SREF            0                       # Time in different power states
system.mem_ctrls.rank1.memoryStateTime::PRE_PDN            0                       # Time in different power states
system.mem_ctrls.rank1.memoryStateTime::ACT 204959828250                       # Time in different power states
system.mem_ctrls.rank1.memoryStateTime::ACT_PDN            0                       # Time in different power states
system.mem_ctrls.rank0.actEnergy            406937160                       # Energy for activate commands per rank (pJ)
system.mem_ctrls.rank0.preEnergy            216292230                       # Energy for precharge commands per rank (pJ)
system.mem_ctrls.rank0.readEnergy           429935100                       # Energy for read commands per rank (pJ)
system.mem_ctrls.rank0.writeEnergy           54418500                       # Energy for write commands per rank (pJ)
system.mem_ctrls.rank0.refreshEnergy     1205344074480.000244                       # Energy for refresh commands per rank (pJ)
system.mem_ctrls.rank0.actBackEnergy     317030599950                       # Energy for active background per rank (pJ)
system.mem_ctrls.rank0.preBackEnergy     5596431166560                       # Energy for precharge background per rank (pJ)
system.mem_ctrls.rank0.actPowerDownEnergy            0                       # Energy for active power-down per rank (pJ)
system.mem_ctrls.rank0.prePowerDownEnergy            0                       # Energy for precharge power-down per rank (pJ)
system.mem_ctrls.rank0.selfRefreshEnergy            0                       # Energy for self refresh per rank (pJ)
system.mem_ctrls.rank0.totalEnergy       7119913423980                       # Total energy per rank (pJ)
system.mem_ctrls.rank0.averagePower        466.289978                       # Core power per rank (mW)
system.mem_ctrls.rank0.totalIdleTime                0                       # Total Idle time Per DRAM Rank
system.mem_ctrls.rank0.memoryStateTime::IDLE 14546372410750                       # Time in different power states
system.mem_ctrls.rank0.memoryStateTime::REF 509874820000                       # Time in different power states
system.mem_ctrls.rank0.memoryStateTime::SREF            0                       # Time in different power states
system.mem_ctrls.rank0.memoryStateTime::PRE_PDN            0                       # Time in different power states
system.mem_ctrls.rank0.memoryStateTime::ACT 213035314750                       # Time in different power states
system.mem_ctrls.rank0.memoryStateTime::ACT_PDN            0                       # Time in different power states
system.iobus.pwrStateResidencyTicks::UNDEFINED 16320505580000                       # Cumulative time (in ticks) in various power states
system.iobus.trans_dist::ReadReq                10288                       # Transaction distribution
system.iobus.trans_dist::ReadResp               10288                       # Transaction distribution
system.iobus.trans_dist::WriteReq               23358                       # Transaction distribution
system.iobus.trans_dist::WriteResp              23358                       # Transaction distribution
system.iobus.pkt_count_system.bridge.master::system.realview.uart.pio          988                       # Packet count per connected master and slave (bytes)
system.iobus.pkt_count_system.bridge.master::system.pci_ide.pio        10660                       # Packet count per connected master and slave (bytes)
system.iobus.pkt_count_system.bridge.master::total        11648                       # Packet count per connected master and slave (bytes)
system.iobus.pkt_count_system.pci_ide.dma::system.iocache.cpu_side        55644                       # Packet count per connected master and slave (bytes)
system.iobus.pkt_count_system.pci_ide.dma::total        55644                       # Packet count per connected master and slave (bytes)
system.iobus.pkt_count::total                   67292                       # Packet count per connected master and slave (bytes)
system.iobus.pkt_size_system.bridge.master::system.realview.uart.pio          988                       # Cumulative packet size per connected master and slave (bytes)
system.iobus.pkt_size_system.bridge.master::system.pci_ide.pio         5945                       # Cumulative packet size per connected master and slave (bytes)
system.iobus.pkt_size_system.bridge.master::total         6933                       # Cumulative packet size per connected master and slave (bytes)
system.iobus.pkt_size_system.pci_ide.dma::system.iocache.cpu_side      1761456                       # Cumulative packet size per connected master and slave (bytes)
system.iobus.pkt_size_system.pci_ide.dma::total      1761456                       # Cumulative packet size per connected master and slave (bytes)
system.iobus.pkt_size::total                  1768389                       # Cumulative packet size per connected master and slave (bytes)
system.iobus.reqLayer1.occupancy              1494000                       # Layer occupancy (ticks)
system.iobus.reqLayer1.utilization                0.0                       # Layer utilization (%)
system.iobus.respLayer1.occupancy           112648000                       # Layer occupancy (ticks)
system.iobus.respLayer1.utilization               0.0                       # Layer utilization (%)
system.iobus.respLayer0.occupancy            17460000                       # Layer occupancy (ticks)
system.iobus.respLayer0.utilization               0.0                       # Layer utilization (%)
system.iobus.reqLayer10.occupancy            15990000                       # Layer occupancy (ticks)
system.iobus.reqLayer10.utilization               0.0                       # Layer utilization (%)
system.iobus.reqLayer11.occupancy           240729240                       # Layer occupancy (ticks)
system.iobus.reqLayer11.utilization               0.0                       # Layer utilization (%)

---------- End Simulation Statistics   ----------
