
---------- Begin Simulation Statistics ----------
final_tick                               174874942994500                       # Number of ticks from beginning of simulation (restored from checkpoints and never reset)
host_inst_rate                                 537495                       # Simulator instruction rate (inst/s)
host_mem_usage                               17268768                       # Number of bytes of host memory used
host_op_rate                                   560730                       # Simulator op (including micro ops) rate (op/s)
host_seconds                                  6265.19                       # Real time elapsed on the host
host_tick_rate                            27744358176                       # Simulator tick rate (ticks/s)
sim_freq                                 1000000000000                       # Frequency of simulated ticks
sim_insts                                  3367507585                       # Number of instructions simulated
sim_ops                                    3513080980                       # Number of ops (including micro ops) simulated
sim_seconds                                173.823720                       # Number of seconds simulated
sim_ticks                                173823719970000                       # Number of ticks simulated
system.cpu0.Branches                                4                       # Number of branches fetched
system.cpu0.committedInsts                         16                       # Number of instructions committed
system.cpu0.committedOps                           20                       # Number of ops (including micro ops) committed
system.cpu0.dtb.accesses                            6                       # DTB accesses
system.cpu0.dtb.align_faults                        0                       # Number of TLB faults due to alignment restrictions
system.cpu0.dtb.domain_faults                       0                       # Number of TLB faults due to domain restrictions
system.cpu0.dtb.flush_entries                       2                       # Number of entries that have been flushed from TLB
system.cpu0.dtb.flush_tlb                           2                       # Number of times complete TLB was flushed
system.cpu0.dtb.flush_tlb_asid                      0                       # Number of times TLB was flushed by ASID
system.cpu0.dtb.flush_tlb_mva                       0                       # Number of times TLB was flushed by MVA
system.cpu0.dtb.flush_tlb_mva_asid                  0                       # Number of times TLB was flushed by MVA & ASID
system.cpu0.dtb.hits                                4                       # DTB hits
system.cpu0.dtb.inst_accesses                       0                       # ITB inst accesses
system.cpu0.dtb.inst_hits                           0                       # ITB inst hits
system.cpu0.dtb.inst_misses                         0                       # ITB inst misses
system.cpu0.dtb.misses                              2                       # DTB misses
system.cpu0.dtb.perms_faults                        0                       # Number of TLB faults due to permissions restrictions
system.cpu0.dtb.prefetch_faults                     0                       # Number of TLB faults due to prefetch
system.cpu0.dtb.read_accesses                       4                       # DTB read accesses
system.cpu0.dtb.read_hits                           2                       # DTB read hits
system.cpu0.dtb.read_misses                         2                       # DTB read misses
system.cpu0.dtb.stage2_mmu.stage2_tlb.accesses            0                       # DTB accesses
system.cpu0.dtb.stage2_mmu.stage2_tlb.align_faults            0                       # Number of TLB faults due to alignment restrictions
system.cpu0.dtb.stage2_mmu.stage2_tlb.domain_faults            0                       # Number of TLB faults due to domain restrictions
system.cpu0.dtb.stage2_mmu.stage2_tlb.flush_entries            0                       # Number of entries that have been flushed from TLB
system.cpu0.dtb.stage2_mmu.stage2_tlb.flush_tlb            0                       # Number of times complete TLB was flushed
system.cpu0.dtb.stage2_mmu.stage2_tlb.flush_tlb_asid            0                       # Number of times TLB was flushed by ASID
system.cpu0.dtb.stage2_mmu.stage2_tlb.flush_tlb_mva            0                       # Number of times TLB was flushed by MVA
system.cpu0.dtb.stage2_mmu.stage2_tlb.flush_tlb_mva_asid            0                       # Number of times TLB was flushed by MVA & ASID
system.cpu0.dtb.stage2_mmu.stage2_tlb.hits            0                       # DTB hits
system.cpu0.dtb.stage2_mmu.stage2_tlb.inst_accesses            0                       # ITB inst accesses
system.cpu0.dtb.stage2_mmu.stage2_tlb.inst_hits            0                       # ITB inst hits
system.cpu0.dtb.stage2_mmu.stage2_tlb.inst_misses            0                       # ITB inst misses
system.cpu0.dtb.stage2_mmu.stage2_tlb.misses            0                       # DTB misses
system.cpu0.dtb.stage2_mmu.stage2_tlb.perms_faults            0                       # Number of TLB faults due to permissions restrictions
system.cpu0.dtb.stage2_mmu.stage2_tlb.prefetch_faults            0                       # Number of TLB faults due to prefetch
system.cpu0.dtb.stage2_mmu.stage2_tlb.read_accesses            0                       # DTB read accesses
system.cpu0.dtb.stage2_mmu.stage2_tlb.read_hits            0                       # DTB read hits
system.cpu0.dtb.stage2_mmu.stage2_tlb.read_misses            0                       # DTB read misses
system.cpu0.dtb.stage2_mmu.stage2_tlb.walker.walkRequestOrigin_Requested::Data            0                       # Table walker requests started/completed, data/inst
system.cpu0.dtb.stage2_mmu.stage2_tlb.walker.walkRequestOrigin_Requested::Inst            0                       # Table walker requests started/completed, data/inst
system.cpu0.dtb.stage2_mmu.stage2_tlb.walker.walkRequestOrigin_Requested::total            0                       # Table walker requests started/completed, data/inst
system.cpu0.dtb.stage2_mmu.stage2_tlb.walker.walkRequestOrigin_Completed::Data            0                       # Table walker requests started/completed, data/inst
system.cpu0.dtb.stage2_mmu.stage2_tlb.walker.walkRequestOrigin_Completed::Inst            0                       # Table walker requests started/completed, data/inst
system.cpu0.dtb.stage2_mmu.stage2_tlb.walker.walkRequestOrigin_Completed::total            0                       # Table walker requests started/completed, data/inst
system.cpu0.dtb.stage2_mmu.stage2_tlb.walker.walkRequestOrigin::total            0                       # Table walker requests started/completed, data/inst
system.cpu0.dtb.stage2_mmu.stage2_tlb.walker.walks            0                       # Table walker walks requested
system.cpu0.dtb.stage2_mmu.stage2_tlb.write_accesses            0                       # DTB write accesses
system.cpu0.dtb.stage2_mmu.stage2_tlb.write_hits            0                       # DTB write hits
system.cpu0.dtb.stage2_mmu.stage2_tlb.write_misses            0                       # DTB write misses
system.cpu0.dtb.walker.walkPageSizes::4K            2    100.00%    100.00% # Table walker page sizes translated
system.cpu0.dtb.walker.walkPageSizes::total            2                       # Table walker page sizes translated
system.cpu0.dtb.walker.walkRequestOrigin_Requested::Data            2                       # Table walker requests started/completed, data/inst
system.cpu0.dtb.walker.walkRequestOrigin_Requested::Inst            0                       # Table walker requests started/completed, data/inst
system.cpu0.dtb.walker.walkRequestOrigin_Requested::total            2                       # Table walker requests started/completed, data/inst
system.cpu0.dtb.walker.walkRequestOrigin_Completed::Data            2                       # Table walker requests started/completed, data/inst
system.cpu0.dtb.walker.walkRequestOrigin_Completed::Inst            0                       # Table walker requests started/completed, data/inst
system.cpu0.dtb.walker.walkRequestOrigin_Completed::total            2                       # Table walker requests started/completed, data/inst
system.cpu0.dtb.walker.walkRequestOrigin::total            4                       # Table walker requests started/completed, data/inst
system.cpu0.dtb.walker.walkWaitTime::samples            2                       # Table walker wait (enqueue to first request) latency
system.cpu0.dtb.walker.walkWaitTime::0              2    100.00%    100.00% # Table walker wait (enqueue to first request) latency
system.cpu0.dtb.walker.walkWaitTime::total            2                       # Table walker wait (enqueue to first request) latency
system.cpu0.dtb.walker.walks                        2                       # Table walker walks requested
system.cpu0.dtb.walker.walksLong                    2                       # Table walker walks initiated with long descriptors
system.cpu0.dtb.walker.walksPending::samples  -1043953020                       # Table walker pending requests distribution
system.cpu0.dtb.walker.walksPending::mean    -0.000009                       # Table walker pending requests distribution
system.cpu0.dtb.walker.walksPending::0    -1043962020    100.00%    100.00% # Table walker pending requests distribution
system.cpu0.dtb.walker.walksPending::1           9000     -0.00%    100.00% # Table walker pending requests distribution
system.cpu0.dtb.walker.walksPending::total  -1043953020                       # Table walker pending requests distribution
system.cpu0.dtb.write_accesses                      2                       # DTB write accesses
system.cpu0.dtb.write_hits                          2                       # DTB write hits
system.cpu0.dtb.write_misses                        0                       # DTB write misses
system.cpu0.idle_fraction                           0                       # Percentage of idle cycles
system.cpu0.itb.accesses                           16                       # DTB accesses
system.cpu0.itb.align_faults                        0                       # Number of TLB faults due to alignment restrictions
system.cpu0.itb.domain_faults                       0                       # Number of TLB faults due to domain restrictions
system.cpu0.itb.flush_entries                       4                       # Number of entries that have been flushed from TLB
system.cpu0.itb.flush_tlb                           2                       # Number of times complete TLB was flushed
system.cpu0.itb.flush_tlb_asid                      0                       # Number of times TLB was flushed by ASID
system.cpu0.itb.flush_tlb_mva                       0                       # Number of times TLB was flushed by MVA
system.cpu0.itb.flush_tlb_mva_asid                  0                       # Number of times TLB was flushed by MVA & ASID
system.cpu0.itb.hits                               12                       # DTB hits
system.cpu0.itb.inst_accesses                      16                       # ITB inst accesses
system.cpu0.itb.inst_hits                          12                       # ITB inst hits
system.cpu0.itb.inst_misses                         4                       # ITB inst misses
system.cpu0.itb.misses                              4                       # DTB misses
system.cpu0.itb.perms_faults                        0                       # Number of TLB faults due to permissions restrictions
system.cpu0.itb.prefetch_faults                     0                       # Number of TLB faults due to prefetch
system.cpu0.itb.read_accesses                       0                       # DTB read accesses
system.cpu0.itb.read_hits                           0                       # DTB read hits
system.cpu0.itb.read_misses                         0                       # DTB read misses
system.cpu0.itb.stage2_mmu.stage2_tlb.accesses            0                       # DTB accesses
system.cpu0.itb.stage2_mmu.stage2_tlb.align_faults            0                       # Number of TLB faults due to alignment restrictions
system.cpu0.itb.stage2_mmu.stage2_tlb.domain_faults            0                       # Number of TLB faults due to domain restrictions
system.cpu0.itb.stage2_mmu.stage2_tlb.flush_entries            0                       # Number of entries that have been flushed from TLB
system.cpu0.itb.stage2_mmu.stage2_tlb.flush_tlb            0                       # Number of times complete TLB was flushed
system.cpu0.itb.stage2_mmu.stage2_tlb.flush_tlb_asid            0                       # Number of times TLB was flushed by ASID
system.cpu0.itb.stage2_mmu.stage2_tlb.flush_tlb_mva            0                       # Number of times TLB was flushed by MVA
system.cpu0.itb.stage2_mmu.stage2_tlb.flush_tlb_mva_asid            0                       # Number of times TLB was flushed by MVA & ASID
system.cpu0.itb.stage2_mmu.stage2_tlb.hits            0                       # DTB hits
system.cpu0.itb.stage2_mmu.stage2_tlb.inst_accesses            0                       # ITB inst accesses
system.cpu0.itb.stage2_mmu.stage2_tlb.inst_hits            0                       # ITB inst hits
system.cpu0.itb.stage2_mmu.stage2_tlb.inst_misses            0                       # ITB inst misses
system.cpu0.itb.stage2_mmu.stage2_tlb.misses            0                       # DTB misses
system.cpu0.itb.stage2_mmu.stage2_tlb.perms_faults            0                       # Number of TLB faults due to permissions restrictions
system.cpu0.itb.stage2_mmu.stage2_tlb.prefetch_faults            0                       # Number of TLB faults due to prefetch
system.cpu0.itb.stage2_mmu.stage2_tlb.read_accesses            0                       # DTB read accesses
system.cpu0.itb.stage2_mmu.stage2_tlb.read_hits            0                       # DTB read hits
system.cpu0.itb.stage2_mmu.stage2_tlb.read_misses            0                       # DTB read misses
system.cpu0.itb.stage2_mmu.stage2_tlb.walker.walkRequestOrigin_Requested::Data            0                       # Table walker requests started/completed, data/inst
system.cpu0.itb.stage2_mmu.stage2_tlb.walker.walkRequestOrigin_Requested::Inst            0                       # Table walker requests started/completed, data/inst
system.cpu0.itb.stage2_mmu.stage2_tlb.walker.walkRequestOrigin_Requested::total            0                       # Table walker requests started/completed, data/inst
system.cpu0.itb.stage2_mmu.stage2_tlb.walker.walkRequestOrigin_Completed::Data            0                       # Table walker requests started/completed, data/inst
system.cpu0.itb.stage2_mmu.stage2_tlb.walker.walkRequestOrigin_Completed::Inst            0                       # Table walker requests started/completed, data/inst
system.cpu0.itb.stage2_mmu.stage2_tlb.walker.walkRequestOrigin_Completed::total            0                       # Table walker requests started/completed, data/inst
system.cpu0.itb.stage2_mmu.stage2_tlb.walker.walkRequestOrigin::total            0                       # Table walker requests started/completed, data/inst
system.cpu0.itb.stage2_mmu.stage2_tlb.walker.walks            0                       # Table walker walks requested
system.cpu0.itb.stage2_mmu.stage2_tlb.write_accesses            0                       # DTB write accesses
system.cpu0.itb.stage2_mmu.stage2_tlb.write_hits            0                       # DTB write hits
system.cpu0.itb.stage2_mmu.stage2_tlb.write_misses            0                       # DTB write misses
system.cpu0.itb.walker.walkPageSizes::4K            4    100.00%    100.00% # Table walker page sizes translated
system.cpu0.itb.walker.walkPageSizes::total            4                       # Table walker page sizes translated
system.cpu0.itb.walker.walkRequestOrigin_Requested::Data            0                       # Table walker requests started/completed, data/inst
system.cpu0.itb.walker.walkRequestOrigin_Requested::Inst            4                       # Table walker requests started/completed, data/inst
system.cpu0.itb.walker.walkRequestOrigin_Requested::total            4                       # Table walker requests started/completed, data/inst
system.cpu0.itb.walker.walkRequestOrigin_Completed::Data            0                       # Table walker requests started/completed, data/inst
system.cpu0.itb.walker.walkRequestOrigin_Completed::Inst            4                       # Table walker requests started/completed, data/inst
system.cpu0.itb.walker.walkRequestOrigin_Completed::total            4                       # Table walker requests started/completed, data/inst
system.cpu0.itb.walker.walkRequestOrigin::total            8                       # Table walker requests started/completed, data/inst
system.cpu0.itb.walker.walkWaitTime::samples            4                       # Table walker wait (enqueue to first request) latency
system.cpu0.itb.walker.walkWaitTime::0              4    100.00%    100.00% # Table walker wait (enqueue to first request) latency
system.cpu0.itb.walker.walkWaitTime::total            4                       # Table walker wait (enqueue to first request) latency
system.cpu0.itb.walker.walks                        4                       # Table walker walks requested
system.cpu0.itb.walker.walksLong                    4                       # Table walker walks initiated with long descriptors
system.cpu0.itb.walker.walksPending::samples  -1043953020                       # Table walker pending requests distribution
system.cpu0.itb.walker.walksPending::mean    -0.000009                       # Table walker pending requests distribution
system.cpu0.itb.walker.walksPending::0    -1043962520    100.00%    100.00% # Table walker pending requests distribution
system.cpu0.itb.walker.walksPending::1           9500     -0.00%    100.00% # Table walker pending requests distribution
system.cpu0.itb.walker.walksPending::total  -1043953020                       # Table walker pending requests distribution
system.cpu0.itb.write_accesses                      0                       # DTB write accesses
system.cpu0.itb.write_hits                          0                       # DTB write hits
system.cpu0.itb.write_misses                        0                       # DTB write misses
system.cpu0.kern.inst.arm                           0                       # number of arm instructions executed
system.cpu0.kern.inst.quiesce                    2553                       # number of quiesce instructions executed
system.cpu0.not_idle_fraction                       1                       # Percentage of non-idle cycles
system.cpu0.numCycles                              20                       # number of cpu cycles simulated
system.cpu0.numWorkItemsCompleted                   0                       # number of work items this cpu completed
system.cpu0.numWorkItemsStarted                     0                       # number of work items this cpu started
system.cpu0.num_busy_cycles                        20                       # Number of busy cycles
system.cpu0.num_conditional_control_insts            1                       # number of instructions that are conditional controls
system.cpu0.num_fp_alu_accesses                     0                       # Number of float alu accesses
system.cpu0.num_fp_insts                            0                       # number of float instructions
system.cpu0.num_fp_register_reads                   0                       # number of times the floating registers were read
system.cpu0.num_fp_register_writes                  0                       # number of times the floating registers were written
system.cpu0.num_func_calls                          3                       # number of times a function call or return occured
system.cpu0.num_idle_cycles                         0                       # Number of idle cycles
system.cpu0.num_int_alu_accesses                   20                       # Number of integer alu accesses
system.cpu0.num_int_insts                          20                       # number of integer instructions
system.cpu0.num_int_register_reads                 22                       # number of times the integer registers were read
system.cpu0.num_int_register_writes                16                       # number of times the integer registers were written
system.cpu0.num_load_insts                          4                       # Number of load instructions
system.cpu0.num_mem_refs                            6                       # number of memory refs
system.cpu0.num_store_insts                         2                       # Number of store instructions
system.cpu0.num_vec_alu_accesses                    0                       # Number of vector alu accesses
system.cpu0.num_vec_insts                           0                       # number of vector instructions
system.cpu0.num_vec_register_reads                  0                       # number of times the vector registers were read
system.cpu0.num_vec_register_writes                 0                       # number of times the vector registers were written
system.cpu0.op_class::No_OpClass                    0      0.00%      0.00% # Class of executed instruction
system.cpu0.op_class::IntAlu                       14     70.00%     70.00% # Class of executed instruction
system.cpu0.op_class::IntMult                       0      0.00%     70.00% # Class of executed instruction
system.cpu0.op_class::IntDiv                        0      0.00%     70.00% # Class of executed instruction
system.cpu0.op_class::FloatAdd                      0      0.00%     70.00% # Class of executed instruction
system.cpu0.op_class::FloatCmp                      0      0.00%     70.00% # Class of executed instruction
system.cpu0.op_class::FloatCvt                      0      0.00%     70.00% # Class of executed instruction
system.cpu0.op_class::FloatMult                     0      0.00%     70.00% # Class of executed instruction
system.cpu0.op_class::FloatMultAcc                  0      0.00%     70.00% # Class of executed instruction
system.cpu0.op_class::FloatDiv                      0      0.00%     70.00% # Class of executed instruction
system.cpu0.op_class::FloatMisc                     0      0.00%     70.00% # Class of executed instruction
system.cpu0.op_class::FloatSqrt                     0      0.00%     70.00% # Class of executed instruction
system.cpu0.op_class::SimdAdd                       0      0.00%     70.00% # Class of executed instruction
system.cpu0.op_class::SimdAddAcc                    0      0.00%     70.00% # Class of executed instruction
system.cpu0.op_class::SimdAlu                       0      0.00%     70.00% # Class of executed instruction
system.cpu0.op_class::SimdCmp                       0      0.00%     70.00% # Class of executed instruction
system.cpu0.op_class::SimdCvt                       0      0.00%     70.00% # Class of executed instruction
system.cpu0.op_class::SimdMisc                      0      0.00%     70.00% # Class of executed instruction
system.cpu0.op_class::SimdMult                      0      0.00%     70.00% # Class of executed instruction
system.cpu0.op_class::SimdMultAcc                   0      0.00%     70.00% # Class of executed instruction
system.cpu0.op_class::SimdShift                     0      0.00%     70.00% # Class of executed instruction
system.cpu0.op_class::SimdShiftAcc                  0      0.00%     70.00% # Class of executed instruction
system.cpu0.op_class::SimdDiv                       0      0.00%     70.00% # Class of executed instruction
system.cpu0.op_class::SimdSqrt                      0      0.00%     70.00% # Class of executed instruction
system.cpu0.op_class::SimdFloatAdd                  0      0.00%     70.00% # Class of executed instruction
system.cpu0.op_class::SimdFloatAlu                  0      0.00%     70.00% # Class of executed instruction
system.cpu0.op_class::SimdFloatCmp                  0      0.00%     70.00% # Class of executed instruction
system.cpu0.op_class::SimdFloatCvt                  0      0.00%     70.00% # Class of executed instruction
system.cpu0.op_class::SimdFloatDiv                  0      0.00%     70.00% # Class of executed instruction
system.cpu0.op_class::SimdFloatMisc                 0      0.00%     70.00% # Class of executed instruction
system.cpu0.op_class::SimdFloatMult                 0      0.00%     70.00% # Class of executed instruction
system.cpu0.op_class::SimdFloatMultAcc              0      0.00%     70.00% # Class of executed instruction
system.cpu0.op_class::SimdFloatSqrt                 0      0.00%     70.00% # Class of executed instruction
system.cpu0.op_class::SimdReduceAdd                 0      0.00%     70.00% # Class of executed instruction
system.cpu0.op_class::SimdReduceAlu                 0      0.00%     70.00% # Class of executed instruction
system.cpu0.op_class::SimdReduceCmp                 0      0.00%     70.00% # Class of executed instruction
system.cpu0.op_class::SimdFloatReduceAdd            0      0.00%     70.00% # Class of executed instruction
system.cpu0.op_class::SimdFloatReduceCmp            0      0.00%     70.00% # Class of executed instruction
system.cpu0.op_class::SimdAes                       0      0.00%     70.00% # Class of executed instruction
system.cpu0.op_class::SimdAesMix                    0      0.00%     70.00% # Class of executed instruction
system.cpu0.op_class::SimdSha1Hash                  0      0.00%     70.00% # Class of executed instruction
system.cpu0.op_class::SimdSha1Hash2                 0      0.00%     70.00% # Class of executed instruction
system.cpu0.op_class::SimdSha256Hash                0      0.00%     70.00% # Class of executed instruction
system.cpu0.op_class::SimdSha256Hash2               0      0.00%     70.00% # Class of executed instruction
system.cpu0.op_class::SimdShaSigma2                 0      0.00%     70.00% # Class of executed instruction
system.cpu0.op_class::SimdShaSigma3                 0      0.00%     70.00% # Class of executed instruction
system.cpu0.op_class::SimdPredAlu                   0      0.00%     70.00% # Class of executed instruction
system.cpu0.op_class::MemRead                       4     20.00%     90.00% # Class of executed instruction
system.cpu0.op_class::MemWrite                      2     10.00%    100.00% # Class of executed instruction
system.cpu0.op_class::FloatMemRead                  0      0.00%    100.00% # Class of executed instruction
system.cpu0.op_class::FloatMemWrite                 0      0.00%    100.00% # Class of executed instruction
system.cpu0.op_class::IprAccess                     0      0.00%    100.00% # Class of executed instruction
system.cpu0.op_class::InstPrefetch                  0      0.00%    100.00% # Class of executed instruction
system.cpu0.op_class::total                        20                       # Class of executed instruction
system.cpu1.Branches                                1                       # Number of branches fetched
system.cpu1.committedInsts                          1                       # Number of instructions committed
system.cpu1.committedOps                            1                       # Number of ops (including micro ops) committed
system.cpu1.dtb.accesses                            0                       # DTB accesses
system.cpu1.dtb.align_faults                        0                       # Number of TLB faults due to alignment restrictions
system.cpu1.dtb.domain_faults                       0                       # Number of TLB faults due to domain restrictions
system.cpu1.dtb.flush_entries                       0                       # Number of entries that have been flushed from TLB
system.cpu1.dtb.flush_tlb                           2                       # Number of times complete TLB was flushed
system.cpu1.dtb.flush_tlb_asid                      0                       # Number of times TLB was flushed by ASID
system.cpu1.dtb.flush_tlb_mva                       0                       # Number of times TLB was flushed by MVA
system.cpu1.dtb.flush_tlb_mva_asid                  0                       # Number of times TLB was flushed by MVA & ASID
system.cpu1.dtb.hits                                0                       # DTB hits
system.cpu1.dtb.inst_accesses                       0                       # ITB inst accesses
system.cpu1.dtb.inst_hits                           0                       # ITB inst hits
system.cpu1.dtb.inst_misses                         0                       # ITB inst misses
system.cpu1.dtb.misses                              0                       # DTB misses
system.cpu1.dtb.perms_faults                        0                       # Number of TLB faults due to permissions restrictions
system.cpu1.dtb.prefetch_faults                     0                       # Number of TLB faults due to prefetch
system.cpu1.dtb.read_accesses                       0                       # DTB read accesses
system.cpu1.dtb.read_hits                           0                       # DTB read hits
system.cpu1.dtb.read_misses                         0                       # DTB read misses
system.cpu1.dtb.stage2_mmu.stage2_tlb.accesses            0                       # DTB accesses
system.cpu1.dtb.stage2_mmu.stage2_tlb.align_faults            0                       # Number of TLB faults due to alignment restrictions
system.cpu1.dtb.stage2_mmu.stage2_tlb.domain_faults            0                       # Number of TLB faults due to domain restrictions
system.cpu1.dtb.stage2_mmu.stage2_tlb.flush_entries            0                       # Number of entries that have been flushed from TLB
system.cpu1.dtb.stage2_mmu.stage2_tlb.flush_tlb            0                       # Number of times complete TLB was flushed
system.cpu1.dtb.stage2_mmu.stage2_tlb.flush_tlb_asid            0                       # Number of times TLB was flushed by ASID
system.cpu1.dtb.stage2_mmu.stage2_tlb.flush_tlb_mva            0                       # Number of times TLB was flushed by MVA
system.cpu1.dtb.stage2_mmu.stage2_tlb.flush_tlb_mva_asid            0                       # Number of times TLB was flushed by MVA & ASID
system.cpu1.dtb.stage2_mmu.stage2_tlb.hits            0                       # DTB hits
system.cpu1.dtb.stage2_mmu.stage2_tlb.inst_accesses            0                       # ITB inst accesses
system.cpu1.dtb.stage2_mmu.stage2_tlb.inst_hits            0                       # ITB inst hits
system.cpu1.dtb.stage2_mmu.stage2_tlb.inst_misses            0                       # ITB inst misses
system.cpu1.dtb.stage2_mmu.stage2_tlb.misses            0                       # DTB misses
system.cpu1.dtb.stage2_mmu.stage2_tlb.perms_faults            0                       # Number of TLB faults due to permissions restrictions
system.cpu1.dtb.stage2_mmu.stage2_tlb.prefetch_faults            0                       # Number of TLB faults due to prefetch
system.cpu1.dtb.stage2_mmu.stage2_tlb.read_accesses            0                       # DTB read accesses
system.cpu1.dtb.stage2_mmu.stage2_tlb.read_hits            0                       # DTB read hits
system.cpu1.dtb.stage2_mmu.stage2_tlb.read_misses            0                       # DTB read misses
system.cpu1.dtb.stage2_mmu.stage2_tlb.walker.walkRequestOrigin_Requested::Data            0                       # Table walker requests started/completed, data/inst
system.cpu1.dtb.stage2_mmu.stage2_tlb.walker.walkRequestOrigin_Requested::Inst            0                       # Table walker requests started/completed, data/inst
system.cpu1.dtb.stage2_mmu.stage2_tlb.walker.walkRequestOrigin_Requested::total            0                       # Table walker requests started/completed, data/inst
system.cpu1.dtb.stage2_mmu.stage2_tlb.walker.walkRequestOrigin_Completed::Data            0                       # Table walker requests started/completed, data/inst
system.cpu1.dtb.stage2_mmu.stage2_tlb.walker.walkRequestOrigin_Completed::Inst            0                       # Table walker requests started/completed, data/inst
system.cpu1.dtb.stage2_mmu.stage2_tlb.walker.walkRequestOrigin_Completed::total            0                       # Table walker requests started/completed, data/inst
system.cpu1.dtb.stage2_mmu.stage2_tlb.walker.walkRequestOrigin::total            0                       # Table walker requests started/completed, data/inst
system.cpu1.dtb.stage2_mmu.stage2_tlb.walker.walks            0                       # Table walker walks requested
system.cpu1.dtb.stage2_mmu.stage2_tlb.write_accesses            0                       # DTB write accesses
system.cpu1.dtb.stage2_mmu.stage2_tlb.write_hits            0                       # DTB write hits
system.cpu1.dtb.stage2_mmu.stage2_tlb.write_misses            0                       # DTB write misses
system.cpu1.dtb.walker.walkRequestOrigin_Requested::Data            0                       # Table walker requests started/completed, data/inst
system.cpu1.dtb.walker.walkRequestOrigin_Requested::Inst            0                       # Table walker requests started/completed, data/inst
system.cpu1.dtb.walker.walkRequestOrigin_Requested::total            0                       # Table walker requests started/completed, data/inst
system.cpu1.dtb.walker.walkRequestOrigin_Completed::Data            0                       # Table walker requests started/completed, data/inst
system.cpu1.dtb.walker.walkRequestOrigin_Completed::Inst            0                       # Table walker requests started/completed, data/inst
system.cpu1.dtb.walker.walkRequestOrigin_Completed::total            0                       # Table walker requests started/completed, data/inst
system.cpu1.dtb.walker.walkRequestOrigin::total            0                       # Table walker requests started/completed, data/inst
system.cpu1.dtb.walker.walks                        0                       # Table walker walks requested
system.cpu1.dtb.write_accesses                      0                       # DTB write accesses
system.cpu1.dtb.write_hits                          0                       # DTB write hits
system.cpu1.dtb.write_misses                        0                       # DTB write misses
system.cpu1.idle_fraction                    0.000000                       # Percentage of idle cycles
system.cpu1.itb.accesses                            1                       # DTB accesses
system.cpu1.itb.align_faults                        0                       # Number of TLB faults due to alignment restrictions
system.cpu1.itb.domain_faults                       0                       # Number of TLB faults due to domain restrictions
system.cpu1.itb.flush_entries                       1                       # Number of entries that have been flushed from TLB
system.cpu1.itb.flush_tlb                           2                       # Number of times complete TLB was flushed
system.cpu1.itb.flush_tlb_asid                      0                       # Number of times TLB was flushed by ASID
system.cpu1.itb.flush_tlb_mva                       0                       # Number of times TLB was flushed by MVA
system.cpu1.itb.flush_tlb_mva_asid                  0                       # Number of times TLB was flushed by MVA & ASID
system.cpu1.itb.hits                                0                       # DTB hits
system.cpu1.itb.inst_accesses                       1                       # ITB inst accesses
system.cpu1.itb.inst_hits                           0                       # ITB inst hits
system.cpu1.itb.inst_misses                         1                       # ITB inst misses
system.cpu1.itb.misses                              1                       # DTB misses
system.cpu1.itb.perms_faults                        0                       # Number of TLB faults due to permissions restrictions
system.cpu1.itb.prefetch_faults                     0                       # Number of TLB faults due to prefetch
system.cpu1.itb.read_accesses                       0                       # DTB read accesses
system.cpu1.itb.read_hits                           0                       # DTB read hits
system.cpu1.itb.read_misses                         0                       # DTB read misses
system.cpu1.itb.stage2_mmu.stage2_tlb.accesses            0                       # DTB accesses
system.cpu1.itb.stage2_mmu.stage2_tlb.align_faults            0                       # Number of TLB faults due to alignment restrictions
system.cpu1.itb.stage2_mmu.stage2_tlb.domain_faults            0                       # Number of TLB faults due to domain restrictions
system.cpu1.itb.stage2_mmu.stage2_tlb.flush_entries            0                       # Number of entries that have been flushed from TLB
system.cpu1.itb.stage2_mmu.stage2_tlb.flush_tlb            0                       # Number of times complete TLB was flushed
system.cpu1.itb.stage2_mmu.stage2_tlb.flush_tlb_asid            0                       # Number of times TLB was flushed by ASID
system.cpu1.itb.stage2_mmu.stage2_tlb.flush_tlb_mva            0                       # Number of times TLB was flushed by MVA
system.cpu1.itb.stage2_mmu.stage2_tlb.flush_tlb_mva_asid            0                       # Number of times TLB was flushed by MVA & ASID
system.cpu1.itb.stage2_mmu.stage2_tlb.hits            0                       # DTB hits
system.cpu1.itb.stage2_mmu.stage2_tlb.inst_accesses            0                       # ITB inst accesses
system.cpu1.itb.stage2_mmu.stage2_tlb.inst_hits            0                       # ITB inst hits
system.cpu1.itb.stage2_mmu.stage2_tlb.inst_misses            0                       # ITB inst misses
system.cpu1.itb.stage2_mmu.stage2_tlb.misses            0                       # DTB misses
system.cpu1.itb.stage2_mmu.stage2_tlb.perms_faults            0                       # Number of TLB faults due to permissions restrictions
system.cpu1.itb.stage2_mmu.stage2_tlb.prefetch_faults            0                       # Number of TLB faults due to prefetch
system.cpu1.itb.stage2_mmu.stage2_tlb.read_accesses            0                       # DTB read accesses
system.cpu1.itb.stage2_mmu.stage2_tlb.read_hits            0                       # DTB read hits
system.cpu1.itb.stage2_mmu.stage2_tlb.read_misses            0                       # DTB read misses
system.cpu1.itb.stage2_mmu.stage2_tlb.walker.walkRequestOrigin_Requested::Data            0                       # Table walker requests started/completed, data/inst
system.cpu1.itb.stage2_mmu.stage2_tlb.walker.walkRequestOrigin_Requested::Inst            0                       # Table walker requests started/completed, data/inst
system.cpu1.itb.stage2_mmu.stage2_tlb.walker.walkRequestOrigin_Requested::total            0                       # Table walker requests started/completed, data/inst
system.cpu1.itb.stage2_mmu.stage2_tlb.walker.walkRequestOrigin_Completed::Data            0                       # Table walker requests started/completed, data/inst
system.cpu1.itb.stage2_mmu.stage2_tlb.walker.walkRequestOrigin_Completed::Inst            0                       # Table walker requests started/completed, data/inst
system.cpu1.itb.stage2_mmu.stage2_tlb.walker.walkRequestOrigin_Completed::total            0                       # Table walker requests started/completed, data/inst
system.cpu1.itb.stage2_mmu.stage2_tlb.walker.walkRequestOrigin::total            0                       # Table walker requests started/completed, data/inst
system.cpu1.itb.stage2_mmu.stage2_tlb.walker.walks            0                       # Table walker walks requested
system.cpu1.itb.stage2_mmu.stage2_tlb.write_accesses            0                       # DTB write accesses
system.cpu1.itb.stage2_mmu.stage2_tlb.write_hits            0                       # DTB write hits
system.cpu1.itb.stage2_mmu.stage2_tlb.write_misses            0                       # DTB write misses
system.cpu1.itb.walker.walkPageSizes::4K            1    100.00%    100.00% # Table walker page sizes translated
system.cpu1.itb.walker.walkPageSizes::total            1                       # Table walker page sizes translated
system.cpu1.itb.walker.walkRequestOrigin_Requested::Data            0                       # Table walker requests started/completed, data/inst
system.cpu1.itb.walker.walkRequestOrigin_Requested::Inst            1                       # Table walker requests started/completed, data/inst
system.cpu1.itb.walker.walkRequestOrigin_Requested::total            1                       # Table walker requests started/completed, data/inst
system.cpu1.itb.walker.walkRequestOrigin_Completed::Data            0                       # Table walker requests started/completed, data/inst
system.cpu1.itb.walker.walkRequestOrigin_Completed::Inst            1                       # Table walker requests started/completed, data/inst
system.cpu1.itb.walker.walkRequestOrigin_Completed::total            1                       # Table walker requests started/completed, data/inst
system.cpu1.itb.walker.walkRequestOrigin::total            2                       # Table walker requests started/completed, data/inst
system.cpu1.itb.walker.walkWaitTime::samples            1                       # Table walker wait (enqueue to first request) latency
system.cpu1.itb.walker.walkWaitTime::0              1    100.00%    100.00% # Table walker wait (enqueue to first request) latency
system.cpu1.itb.walker.walkWaitTime::total            1                       # Table walker wait (enqueue to first request) latency
system.cpu1.itb.walker.walks                        1                       # Table walker walks requested
system.cpu1.itb.walker.walksLong                    1                       # Table walker walks initiated with long descriptors
system.cpu1.itb.walker.walksPending::samples  -1043953020                       # Table walker pending requests distribution
system.cpu1.itb.walker.walksPending::0    -1043953020    100.00%    100.00% # Table walker pending requests distribution
system.cpu1.itb.walker.walksPending::total  -1043953020                       # Table walker pending requests distribution
system.cpu1.itb.write_accesses                      0                       # DTB write accesses
system.cpu1.itb.write_hits                          0                       # DTB write hits
system.cpu1.itb.write_misses                        0                       # DTB write misses
system.cpu1.kern.inst.arm                           0                       # number of arm instructions executed
system.cpu1.kern.inst.quiesce                    2391                       # number of quiesce instructions executed
system.cpu1.not_idle_fraction                1.000000                       # Percentage of non-idle cycles
system.cpu1.numCycles                      2102446070                       # number of cpu cycles simulated
system.cpu1.numWorkItemsCompleted                   0                       # number of work items this cpu completed
system.cpu1.numWorkItemsStarted                     0                       # number of work items this cpu started
system.cpu1.num_busy_cycles              2102446069.879047                       # Number of busy cycles
system.cpu1.num_conditional_control_insts            0                       # number of instructions that are conditional controls
system.cpu1.num_fp_alu_accesses                     0                       # Number of float alu accesses
system.cpu1.num_fp_insts                            0                       # number of float instructions
system.cpu1.num_fp_register_reads                   0                       # number of times the floating registers were read
system.cpu1.num_fp_register_writes                  0                       # number of times the floating registers were written
system.cpu1.num_func_calls                          1                       # number of times a function call or return occured
system.cpu1.num_idle_cycles                  0.120953                       # Number of idle cycles
system.cpu1.num_int_alu_accesses                    1                       # Number of integer alu accesses
system.cpu1.num_int_insts                           1                       # number of integer instructions
system.cpu1.num_int_register_reads                  1                       # number of times the integer registers were read
system.cpu1.num_int_register_writes                 0                       # number of times the integer registers were written
system.cpu1.num_load_insts                          0                       # Number of load instructions
system.cpu1.num_mem_refs                            0                       # number of memory refs
system.cpu1.num_store_insts                         0                       # Number of store instructions
system.cpu1.num_vec_alu_accesses                    0                       # Number of vector alu accesses
system.cpu1.num_vec_insts                           0                       # number of vector instructions
system.cpu1.num_vec_register_reads                  0                       # number of times the vector registers were read
system.cpu1.num_vec_register_writes                 0                       # number of times the vector registers were written
system.cpu1.op_class::No_OpClass                    0      0.00%      0.00% # Class of executed instruction
system.cpu1.op_class::IntAlu                        1    100.00%    100.00% # Class of executed instruction
system.cpu1.op_class::IntMult                       0      0.00%    100.00% # Class of executed instruction
system.cpu1.op_class::IntDiv                        0      0.00%    100.00% # Class of executed instruction
system.cpu1.op_class::FloatAdd                      0      0.00%    100.00% # Class of executed instruction
system.cpu1.op_class::FloatCmp                      0      0.00%    100.00% # Class of executed instruction
system.cpu1.op_class::FloatCvt                      0      0.00%    100.00% # Class of executed instruction
system.cpu1.op_class::FloatMult                     0      0.00%    100.00% # Class of executed instruction
system.cpu1.op_class::FloatMultAcc                  0      0.00%    100.00% # Class of executed instruction
system.cpu1.op_class::FloatDiv                      0      0.00%    100.00% # Class of executed instruction
system.cpu1.op_class::FloatMisc                     0      0.00%    100.00% # Class of executed instruction
system.cpu1.op_class::FloatSqrt                     0      0.00%    100.00% # Class of executed instruction
system.cpu1.op_class::SimdAdd                       0      0.00%    100.00% # Class of executed instruction
system.cpu1.op_class::SimdAddAcc                    0      0.00%    100.00% # Class of executed instruction
system.cpu1.op_class::SimdAlu                       0      0.00%    100.00% # Class of executed instruction
system.cpu1.op_class::SimdCmp                       0      0.00%    100.00% # Class of executed instruction
system.cpu1.op_class::SimdCvt                       0      0.00%    100.00% # Class of executed instruction
system.cpu1.op_class::SimdMisc                      0      0.00%    100.00% # Class of executed instruction
system.cpu1.op_class::SimdMult                      0      0.00%    100.00% # Class of executed instruction
system.cpu1.op_class::SimdMultAcc                   0      0.00%    100.00% # Class of executed instruction
system.cpu1.op_class::SimdShift                     0      0.00%    100.00% # Class of executed instruction
system.cpu1.op_class::SimdShiftAcc                  0      0.00%    100.00% # Class of executed instruction
system.cpu1.op_class::SimdDiv                       0      0.00%    100.00% # Class of executed instruction
system.cpu1.op_class::SimdSqrt                      0      0.00%    100.00% # Class of executed instruction
system.cpu1.op_class::SimdFloatAdd                  0      0.00%    100.00% # Class of executed instruction
system.cpu1.op_class::SimdFloatAlu                  0      0.00%    100.00% # Class of executed instruction
system.cpu1.op_class::SimdFloatCmp                  0      0.00%    100.00% # Class of executed instruction
system.cpu1.op_class::SimdFloatCvt                  0      0.00%    100.00% # Class of executed instruction
system.cpu1.op_class::SimdFloatDiv                  0      0.00%    100.00% # Class of executed instruction
system.cpu1.op_class::SimdFloatMisc                 0      0.00%    100.00% # Class of executed instruction
system.cpu1.op_class::SimdFloatMult                 0      0.00%    100.00% # Class of executed instruction
system.cpu1.op_class::SimdFloatMultAcc              0      0.00%    100.00% # Class of executed instruction
system.cpu1.op_class::SimdFloatSqrt                 0      0.00%    100.00% # Class of executed instruction
system.cpu1.op_class::SimdReduceAdd                 0      0.00%    100.00% # Class of executed instruction
system.cpu1.op_class::SimdReduceAlu                 0      0.00%    100.00% # Class of executed instruction
system.cpu1.op_class::SimdReduceCmp                 0      0.00%    100.00% # Class of executed instruction
system.cpu1.op_class::SimdFloatReduceAdd            0      0.00%    100.00% # Class of executed instruction
system.cpu1.op_class::SimdFloatReduceCmp            0      0.00%    100.00% # Class of executed instruction
system.cpu1.op_class::SimdAes                       0      0.00%    100.00% # Class of executed instruction
system.cpu1.op_class::SimdAesMix                    0      0.00%    100.00% # Class of executed instruction
system.cpu1.op_class::SimdSha1Hash                  0      0.00%    100.00% # Class of executed instruction
system.cpu1.op_class::SimdSha1Hash2                 0      0.00%    100.00% # Class of executed instruction
system.cpu1.op_class::SimdSha256Hash                0      0.00%    100.00% # Class of executed instruction
system.cpu1.op_class::SimdSha256Hash2               0      0.00%    100.00% # Class of executed instruction
system.cpu1.op_class::SimdShaSigma2                 0      0.00%    100.00% # Class of executed instruction
system.cpu1.op_class::SimdShaSigma3                 0      0.00%    100.00% # Class of executed instruction
system.cpu1.op_class::SimdPredAlu                   0      0.00%    100.00% # Class of executed instruction
system.cpu1.op_class::MemRead                       0      0.00%    100.00% # Class of executed instruction
system.cpu1.op_class::MemWrite                      0      0.00%    100.00% # Class of executed instruction
system.cpu1.op_class::FloatMemRead                  0      0.00%    100.00% # Class of executed instruction
system.cpu1.op_class::FloatMemWrite                 0      0.00%    100.00% # Class of executed instruction
system.cpu1.op_class::IprAccess                     0      0.00%    100.00% # Class of executed instruction
system.cpu1.op_class::InstPrefetch                  0      0.00%    100.00% # Class of executed instruction
system.cpu1.op_class::total                         1                       # Class of executed instruction
system.cpu2.Branches                                1                       # Number of branches fetched
system.cpu2.committedInsts                          1                       # Number of instructions committed
system.cpu2.committedOps                            1                       # Number of ops (including micro ops) committed
system.cpu2.dtb.accesses                            0                       # DTB accesses
system.cpu2.dtb.align_faults                        0                       # Number of TLB faults due to alignment restrictions
system.cpu2.dtb.domain_faults                       0                       # Number of TLB faults due to domain restrictions
system.cpu2.dtb.flush_entries                       0                       # Number of entries that have been flushed from TLB
system.cpu2.dtb.flush_tlb                           2                       # Number of times complete TLB was flushed
system.cpu2.dtb.flush_tlb_asid                      0                       # Number of times TLB was flushed by ASID
system.cpu2.dtb.flush_tlb_mva                       0                       # Number of times TLB was flushed by MVA
system.cpu2.dtb.flush_tlb_mva_asid                  0                       # Number of times TLB was flushed by MVA & ASID
system.cpu2.dtb.hits                                0                       # DTB hits
system.cpu2.dtb.inst_accesses                       0                       # ITB inst accesses
system.cpu2.dtb.inst_hits                           0                       # ITB inst hits
system.cpu2.dtb.inst_misses                         0                       # ITB inst misses
system.cpu2.dtb.misses                              0                       # DTB misses
system.cpu2.dtb.perms_faults                        0                       # Number of TLB faults due to permissions restrictions
system.cpu2.dtb.prefetch_faults                     0                       # Number of TLB faults due to prefetch
system.cpu2.dtb.read_accesses                       0                       # DTB read accesses
system.cpu2.dtb.read_hits                           0                       # DTB read hits
system.cpu2.dtb.read_misses                         0                       # DTB read misses
system.cpu2.dtb.stage2_mmu.stage2_tlb.accesses            0                       # DTB accesses
system.cpu2.dtb.stage2_mmu.stage2_tlb.align_faults            0                       # Number of TLB faults due to alignment restrictions
system.cpu2.dtb.stage2_mmu.stage2_tlb.domain_faults            0                       # Number of TLB faults due to domain restrictions
system.cpu2.dtb.stage2_mmu.stage2_tlb.flush_entries            0                       # Number of entries that have been flushed from TLB
system.cpu2.dtb.stage2_mmu.stage2_tlb.flush_tlb            0                       # Number of times complete TLB was flushed
system.cpu2.dtb.stage2_mmu.stage2_tlb.flush_tlb_asid            0                       # Number of times TLB was flushed by ASID
system.cpu2.dtb.stage2_mmu.stage2_tlb.flush_tlb_mva            0                       # Number of times TLB was flushed by MVA
system.cpu2.dtb.stage2_mmu.stage2_tlb.flush_tlb_mva_asid            0                       # Number of times TLB was flushed by MVA & ASID
system.cpu2.dtb.stage2_mmu.stage2_tlb.hits            0                       # DTB hits
system.cpu2.dtb.stage2_mmu.stage2_tlb.inst_accesses            0                       # ITB inst accesses
system.cpu2.dtb.stage2_mmu.stage2_tlb.inst_hits            0                       # ITB inst hits
system.cpu2.dtb.stage2_mmu.stage2_tlb.inst_misses            0                       # ITB inst misses
system.cpu2.dtb.stage2_mmu.stage2_tlb.misses            0                       # DTB misses
system.cpu2.dtb.stage2_mmu.stage2_tlb.perms_faults            0                       # Number of TLB faults due to permissions restrictions
system.cpu2.dtb.stage2_mmu.stage2_tlb.prefetch_faults            0                       # Number of TLB faults due to prefetch
system.cpu2.dtb.stage2_mmu.stage2_tlb.read_accesses            0                       # DTB read accesses
system.cpu2.dtb.stage2_mmu.stage2_tlb.read_hits            0                       # DTB read hits
system.cpu2.dtb.stage2_mmu.stage2_tlb.read_misses            0                       # DTB read misses
system.cpu2.dtb.stage2_mmu.stage2_tlb.walker.walkRequestOrigin_Requested::Data            0                       # Table walker requests started/completed, data/inst
system.cpu2.dtb.stage2_mmu.stage2_tlb.walker.walkRequestOrigin_Requested::Inst            0                       # Table walker requests started/completed, data/inst
system.cpu2.dtb.stage2_mmu.stage2_tlb.walker.walkRequestOrigin_Requested::total            0                       # Table walker requests started/completed, data/inst
system.cpu2.dtb.stage2_mmu.stage2_tlb.walker.walkRequestOrigin_Completed::Data            0                       # Table walker requests started/completed, data/inst
system.cpu2.dtb.stage2_mmu.stage2_tlb.walker.walkRequestOrigin_Completed::Inst            0                       # Table walker requests started/completed, data/inst
system.cpu2.dtb.stage2_mmu.stage2_tlb.walker.walkRequestOrigin_Completed::total            0                       # Table walker requests started/completed, data/inst
system.cpu2.dtb.stage2_mmu.stage2_tlb.walker.walkRequestOrigin::total            0                       # Table walker requests started/completed, data/inst
system.cpu2.dtb.stage2_mmu.stage2_tlb.walker.walks            0                       # Table walker walks requested
system.cpu2.dtb.stage2_mmu.stage2_tlb.write_accesses            0                       # DTB write accesses
system.cpu2.dtb.stage2_mmu.stage2_tlb.write_hits            0                       # DTB write hits
system.cpu2.dtb.stage2_mmu.stage2_tlb.write_misses            0                       # DTB write misses
system.cpu2.dtb.walker.walkRequestOrigin_Requested::Data            0                       # Table walker requests started/completed, data/inst
system.cpu2.dtb.walker.walkRequestOrigin_Requested::Inst            0                       # Table walker requests started/completed, data/inst
system.cpu2.dtb.walker.walkRequestOrigin_Requested::total            0                       # Table walker requests started/completed, data/inst
system.cpu2.dtb.walker.walkRequestOrigin_Completed::Data            0                       # Table walker requests started/completed, data/inst
system.cpu2.dtb.walker.walkRequestOrigin_Completed::Inst            0                       # Table walker requests started/completed, data/inst
system.cpu2.dtb.walker.walkRequestOrigin_Completed::total            0                       # Table walker requests started/completed, data/inst
system.cpu2.dtb.walker.walkRequestOrigin::total            0                       # Table walker requests started/completed, data/inst
system.cpu2.dtb.walker.walks                        0                       # Table walker walks requested
system.cpu2.dtb.write_accesses                      0                       # DTB write accesses
system.cpu2.dtb.write_hits                          0                       # DTB write hits
system.cpu2.dtb.write_misses                        0                       # DTB write misses
system.cpu2.idle_fraction                    0.000000                       # Percentage of idle cycles
system.cpu2.itb.accesses                            1                       # DTB accesses
system.cpu2.itb.align_faults                        0                       # Number of TLB faults due to alignment restrictions
system.cpu2.itb.domain_faults                       0                       # Number of TLB faults due to domain restrictions
system.cpu2.itb.flush_entries                       1                       # Number of entries that have been flushed from TLB
system.cpu2.itb.flush_tlb                           2                       # Number of times complete TLB was flushed
system.cpu2.itb.flush_tlb_asid                      0                       # Number of times TLB was flushed by ASID
system.cpu2.itb.flush_tlb_mva                       0                       # Number of times TLB was flushed by MVA
system.cpu2.itb.flush_tlb_mva_asid                  0                       # Number of times TLB was flushed by MVA & ASID
system.cpu2.itb.hits                                0                       # DTB hits
system.cpu2.itb.inst_accesses                       1                       # ITB inst accesses
system.cpu2.itb.inst_hits                           0                       # ITB inst hits
system.cpu2.itb.inst_misses                         1                       # ITB inst misses
system.cpu2.itb.misses                              1                       # DTB misses
system.cpu2.itb.perms_faults                        0                       # Number of TLB faults due to permissions restrictions
system.cpu2.itb.prefetch_faults                     0                       # Number of TLB faults due to prefetch
system.cpu2.itb.read_accesses                       0                       # DTB read accesses
system.cpu2.itb.read_hits                           0                       # DTB read hits
system.cpu2.itb.read_misses                         0                       # DTB read misses
system.cpu2.itb.stage2_mmu.stage2_tlb.accesses            0                       # DTB accesses
system.cpu2.itb.stage2_mmu.stage2_tlb.align_faults            0                       # Number of TLB faults due to alignment restrictions
system.cpu2.itb.stage2_mmu.stage2_tlb.domain_faults            0                       # Number of TLB faults due to domain restrictions
system.cpu2.itb.stage2_mmu.stage2_tlb.flush_entries            0                       # Number of entries that have been flushed from TLB
system.cpu2.itb.stage2_mmu.stage2_tlb.flush_tlb            0                       # Number of times complete TLB was flushed
system.cpu2.itb.stage2_mmu.stage2_tlb.flush_tlb_asid            0                       # Number of times TLB was flushed by ASID
system.cpu2.itb.stage2_mmu.stage2_tlb.flush_tlb_mva            0                       # Number of times TLB was flushed by MVA
system.cpu2.itb.stage2_mmu.stage2_tlb.flush_tlb_mva_asid            0                       # Number of times TLB was flushed by MVA & ASID
system.cpu2.itb.stage2_mmu.stage2_tlb.hits            0                       # DTB hits
system.cpu2.itb.stage2_mmu.stage2_tlb.inst_accesses            0                       # ITB inst accesses
system.cpu2.itb.stage2_mmu.stage2_tlb.inst_hits            0                       # ITB inst hits
system.cpu2.itb.stage2_mmu.stage2_tlb.inst_misses            0                       # ITB inst misses
system.cpu2.itb.stage2_mmu.stage2_tlb.misses            0                       # DTB misses
system.cpu2.itb.stage2_mmu.stage2_tlb.perms_faults            0                       # Number of TLB faults due to permissions restrictions
system.cpu2.itb.stage2_mmu.stage2_tlb.prefetch_faults            0                       # Number of TLB faults due to prefetch
system.cpu2.itb.stage2_mmu.stage2_tlb.read_accesses            0                       # DTB read accesses
system.cpu2.itb.stage2_mmu.stage2_tlb.read_hits            0                       # DTB read hits
system.cpu2.itb.stage2_mmu.stage2_tlb.read_misses            0                       # DTB read misses
system.cpu2.itb.stage2_mmu.stage2_tlb.walker.walkRequestOrigin_Requested::Data            0                       # Table walker requests started/completed, data/inst
system.cpu2.itb.stage2_mmu.stage2_tlb.walker.walkRequestOrigin_Requested::Inst            0                       # Table walker requests started/completed, data/inst
system.cpu2.itb.stage2_mmu.stage2_tlb.walker.walkRequestOrigin_Requested::total            0                       # Table walker requests started/completed, data/inst
system.cpu2.itb.stage2_mmu.stage2_tlb.walker.walkRequestOrigin_Completed::Data            0                       # Table walker requests started/completed, data/inst
system.cpu2.itb.stage2_mmu.stage2_tlb.walker.walkRequestOrigin_Completed::Inst            0                       # Table walker requests started/completed, data/inst
system.cpu2.itb.stage2_mmu.stage2_tlb.walker.walkRequestOrigin_Completed::total            0                       # Table walker requests started/completed, data/inst
system.cpu2.itb.stage2_mmu.stage2_tlb.walker.walkRequestOrigin::total            0                       # Table walker requests started/completed, data/inst
system.cpu2.itb.stage2_mmu.stage2_tlb.walker.walks            0                       # Table walker walks requested
system.cpu2.itb.stage2_mmu.stage2_tlb.write_accesses            0                       # DTB write accesses
system.cpu2.itb.stage2_mmu.stage2_tlb.write_hits            0                       # DTB write hits
system.cpu2.itb.stage2_mmu.stage2_tlb.write_misses            0                       # DTB write misses
system.cpu2.itb.walker.walkPageSizes::4K            1    100.00%    100.00% # Table walker page sizes translated
system.cpu2.itb.walker.walkPageSizes::total            1                       # Table walker page sizes translated
system.cpu2.itb.walker.walkRequestOrigin_Requested::Data            0                       # Table walker requests started/completed, data/inst
system.cpu2.itb.walker.walkRequestOrigin_Requested::Inst            1                       # Table walker requests started/completed, data/inst
system.cpu2.itb.walker.walkRequestOrigin_Requested::total            1                       # Table walker requests started/completed, data/inst
system.cpu2.itb.walker.walkRequestOrigin_Completed::Data            0                       # Table walker requests started/completed, data/inst
system.cpu2.itb.walker.walkRequestOrigin_Completed::Inst            1                       # Table walker requests started/completed, data/inst
system.cpu2.itb.walker.walkRequestOrigin_Completed::total            1                       # Table walker requests started/completed, data/inst
system.cpu2.itb.walker.walkRequestOrigin::total            2                       # Table walker requests started/completed, data/inst
system.cpu2.itb.walker.walkWaitTime::samples            1                       # Table walker wait (enqueue to first request) latency
system.cpu2.itb.walker.walkWaitTime::0              1    100.00%    100.00% # Table walker wait (enqueue to first request) latency
system.cpu2.itb.walker.walkWaitTime::total            1                       # Table walker wait (enqueue to first request) latency
system.cpu2.itb.walker.walks                        1                       # Table walker walks requested
system.cpu2.itb.walker.walksLong                    1                       # Table walker walks initiated with long descriptors
system.cpu2.itb.walker.walksPending::samples  -1043953020                       # Table walker pending requests distribution
system.cpu2.itb.walker.walksPending::0    -1043953020    100.00%    100.00% # Table walker pending requests distribution
system.cpu2.itb.walker.walksPending::total  -1043953020                       # Table walker pending requests distribution
system.cpu2.itb.write_accesses                      0                       # DTB write accesses
system.cpu2.itb.write_hits                          0                       # DTB write hits
system.cpu2.itb.write_misses                        0                       # DTB write misses
system.cpu2.kern.inst.arm                           0                       # number of arm instructions executed
system.cpu2.kern.inst.quiesce                    2102                       # number of quiesce instructions executed
system.cpu2.not_idle_fraction                1.000000                       # Percentage of non-idle cycles
system.cpu2.numCycles                      2102446070                       # number of cpu cycles simulated
system.cpu2.numWorkItemsCompleted                   0                       # number of work items this cpu completed
system.cpu2.numWorkItemsStarted                     0                       # number of work items this cpu started
system.cpu2.num_busy_cycles              2102446069.879047                       # Number of busy cycles
system.cpu2.num_conditional_control_insts            0                       # number of instructions that are conditional controls
system.cpu2.num_fp_alu_accesses                     0                       # Number of float alu accesses
system.cpu2.num_fp_insts                            0                       # number of float instructions
system.cpu2.num_fp_register_reads                   0                       # number of times the floating registers were read
system.cpu2.num_fp_register_writes                  0                       # number of times the floating registers were written
system.cpu2.num_func_calls                          1                       # number of times a function call or return occured
system.cpu2.num_idle_cycles                  0.120953                       # Number of idle cycles
system.cpu2.num_int_alu_accesses                    1                       # Number of integer alu accesses
system.cpu2.num_int_insts                           1                       # number of integer instructions
system.cpu2.num_int_register_reads                  1                       # number of times the integer registers were read
system.cpu2.num_int_register_writes                 0                       # number of times the integer registers were written
system.cpu2.num_load_insts                          0                       # Number of load instructions
system.cpu2.num_mem_refs                            0                       # number of memory refs
system.cpu2.num_store_insts                         0                       # Number of store instructions
system.cpu2.num_vec_alu_accesses                    0                       # Number of vector alu accesses
system.cpu2.num_vec_insts                           0                       # number of vector instructions
system.cpu2.num_vec_register_reads                  0                       # number of times the vector registers were read
system.cpu2.num_vec_register_writes                 0                       # number of times the vector registers were written
system.cpu2.op_class::No_OpClass                    0      0.00%      0.00% # Class of executed instruction
system.cpu2.op_class::IntAlu                        1    100.00%    100.00% # Class of executed instruction
system.cpu2.op_class::IntMult                       0      0.00%    100.00% # Class of executed instruction
system.cpu2.op_class::IntDiv                        0      0.00%    100.00% # Class of executed instruction
system.cpu2.op_class::FloatAdd                      0      0.00%    100.00% # Class of executed instruction
system.cpu2.op_class::FloatCmp                      0      0.00%    100.00% # Class of executed instruction
system.cpu2.op_class::FloatCvt                      0      0.00%    100.00% # Class of executed instruction
system.cpu2.op_class::FloatMult                     0      0.00%    100.00% # Class of executed instruction
system.cpu2.op_class::FloatMultAcc                  0      0.00%    100.00% # Class of executed instruction
system.cpu2.op_class::FloatDiv                      0      0.00%    100.00% # Class of executed instruction
system.cpu2.op_class::FloatMisc                     0      0.00%    100.00% # Class of executed instruction
system.cpu2.op_class::FloatSqrt                     0      0.00%    100.00% # Class of executed instruction
system.cpu2.op_class::SimdAdd                       0      0.00%    100.00% # Class of executed instruction
system.cpu2.op_class::SimdAddAcc                    0      0.00%    100.00% # Class of executed instruction
system.cpu2.op_class::SimdAlu                       0      0.00%    100.00% # Class of executed instruction
system.cpu2.op_class::SimdCmp                       0      0.00%    100.00% # Class of executed instruction
system.cpu2.op_class::SimdCvt                       0      0.00%    100.00% # Class of executed instruction
system.cpu2.op_class::SimdMisc                      0      0.00%    100.00% # Class of executed instruction
system.cpu2.op_class::SimdMult                      0      0.00%    100.00% # Class of executed instruction
system.cpu2.op_class::SimdMultAcc                   0      0.00%    100.00% # Class of executed instruction
system.cpu2.op_class::SimdShift                     0      0.00%    100.00% # Class of executed instruction
system.cpu2.op_class::SimdShiftAcc                  0      0.00%    100.00% # Class of executed instruction
system.cpu2.op_class::SimdDiv                       0      0.00%    100.00% # Class of executed instruction
system.cpu2.op_class::SimdSqrt                      0      0.00%    100.00% # Class of executed instruction
system.cpu2.op_class::SimdFloatAdd                  0      0.00%    100.00% # Class of executed instruction
system.cpu2.op_class::SimdFloatAlu                  0      0.00%    100.00% # Class of executed instruction
system.cpu2.op_class::SimdFloatCmp                  0      0.00%    100.00% # Class of executed instruction
system.cpu2.op_class::SimdFloatCvt                  0      0.00%    100.00% # Class of executed instruction
system.cpu2.op_class::SimdFloatDiv                  0      0.00%    100.00% # Class of executed instruction
system.cpu2.op_class::SimdFloatMisc                 0      0.00%    100.00% # Class of executed instruction
system.cpu2.op_class::SimdFloatMult                 0      0.00%    100.00% # Class of executed instruction
system.cpu2.op_class::SimdFloatMultAcc              0      0.00%    100.00% # Class of executed instruction
system.cpu2.op_class::SimdFloatSqrt                 0      0.00%    100.00% # Class of executed instruction
system.cpu2.op_class::SimdReduceAdd                 0      0.00%    100.00% # Class of executed instruction
system.cpu2.op_class::SimdReduceAlu                 0      0.00%    100.00% # Class of executed instruction
system.cpu2.op_class::SimdReduceCmp                 0      0.00%    100.00% # Class of executed instruction
system.cpu2.op_class::SimdFloatReduceAdd            0      0.00%    100.00% # Class of executed instruction
system.cpu2.op_class::SimdFloatReduceCmp            0      0.00%    100.00% # Class of executed instruction
system.cpu2.op_class::SimdAes                       0      0.00%    100.00% # Class of executed instruction
system.cpu2.op_class::SimdAesMix                    0      0.00%    100.00% # Class of executed instruction
system.cpu2.op_class::SimdSha1Hash                  0      0.00%    100.00% # Class of executed instruction
system.cpu2.op_class::SimdSha1Hash2                 0      0.00%    100.00% # Class of executed instruction
system.cpu2.op_class::SimdSha256Hash                0      0.00%    100.00% # Class of executed instruction
system.cpu2.op_class::SimdSha256Hash2               0      0.00%    100.00% # Class of executed instruction
system.cpu2.op_class::SimdShaSigma2                 0      0.00%    100.00% # Class of executed instruction
system.cpu2.op_class::SimdShaSigma3                 0      0.00%    100.00% # Class of executed instruction
system.cpu2.op_class::SimdPredAlu                   0      0.00%    100.00% # Class of executed instruction
system.cpu2.op_class::MemRead                       0      0.00%    100.00% # Class of executed instruction
system.cpu2.op_class::MemWrite                      0      0.00%    100.00% # Class of executed instruction
system.cpu2.op_class::FloatMemRead                  0      0.00%    100.00% # Class of executed instruction
system.cpu2.op_class::FloatMemWrite                 0      0.00%    100.00% # Class of executed instruction
system.cpu2.op_class::IprAccess                     0      0.00%    100.00% # Class of executed instruction
system.cpu2.op_class::InstPrefetch                  0      0.00%    100.00% # Class of executed instruction
system.cpu2.op_class::total                         1                       # Class of executed instruction
system.membus.snoop_filter.hit_multi_requests        10445                       # Number of requests hitting in the snoop filter with multiple (>1) holders of the requested data.
system.membus.snoop_filter.hit_multi_snoops            0                       # Number of snoops hitting in the snoop filter with multiple (>1) holders of the requested data.
system.membus.snoop_filter.hit_single_requests       213341                       # Number of requests hitting in the snoop filter with a single holder of the requested data.
system.membus.snoop_filter.hit_single_snoops            0                       # Number of snoops hitting in the snoop filter with a single holder of the requested data.
system.membus.snoop_filter.tot_requests        390069                       # Total number of requests made to the snoop filter.
system.membus.snoop_filter.tot_snoops               0                       # Total number of snoops made to the snoop filter.
system.pci_ide.disks0.dma_read_bytes           507904                       # Number of bytes transfered via DMA reads (not PRD).
system.pci_ide.disks0.dma_read_full_pages          124                       # Number of full page size DMA reads (not PRD).
system.pci_ide.disks0.dma_read_txs                124                       # Number of DMA read transactions (not PRD).
system.pci_ide.disks0.dma_write_bytes          831488                       # Number of bytes transfered via DMA writes.
system.pci_ide.disks0.dma_write_full_pages          203                       # Number of full page size DMA writes.
system.pci_ide.disks0.dma_write_txs               203                       # Number of DMA write transactions.
system.pci_ide.disks1.dma_read_bytes             4096                       # Number of bytes transfered via DMA reads (not PRD).
system.pci_ide.disks1.dma_read_full_pages            1                       # Number of full page size DMA reads (not PRD).
system.pci_ide.disks1.dma_read_txs                  1                       # Number of DMA read transactions (not PRD).
system.pci_ide.disks1.dma_write_bytes          341504                       # Number of bytes transfered via DMA writes.
system.pci_ide.disks1.dma_write_full_pages           83                       # Number of full page size DMA writes.
system.pci_ide.disks1.dma_write_txs                85                       # Number of DMA write transactions.
system.switch_cpus0.Branches                709517612                       # Number of branches fetched
system.switch_cpus0.committedInsts         1542118760                       # Number of instructions committed
system.switch_cpus0.committedOps           1586066805                       # Number of ops (including micro ops) committed
system.switch_cpus0.dtb.accesses            417354367                       # DTB accesses
system.switch_cpus0.dtb.align_faults                0                       # Number of TLB faults due to alignment restrictions
system.switch_cpus0.dtb.domain_faults               0                       # Number of TLB faults due to domain restrictions
system.switch_cpus0.dtb.flush_entries             566                       # Number of entries that have been flushed from TLB
system.switch_cpus0.dtb.flush_tlb                   1                       # Number of times complete TLB was flushed
system.switch_cpus0.dtb.flush_tlb_asid             32                       # Number of times TLB was flushed by ASID
system.switch_cpus0.dtb.flush_tlb_mva               1                       # Number of times TLB was flushed by MVA
system.switch_cpus0.dtb.flush_tlb_mva_asid         5348                       # Number of times TLB was flushed by MVA & ASID
system.switch_cpus0.dtb.hits                417153143                       # DTB hits
system.switch_cpus0.dtb.inst_accesses               0                       # ITB inst accesses
system.switch_cpus0.dtb.inst_hits                   0                       # ITB inst hits
[...]
system.mem_ctrls.wrPerTurnAround::60-63            13      0.36%     95.36% # Writes before turning the bus around for reads
system.mem_ctrls.wrPerTurnAround::64-67            94      2.60%     97.96% # Writes before turning the bus around for reads
system.mem_ctrls.wrPerTurnAround::68-71            18      0.50%     98.45% # Writes before turning the bus around for reads
system.mem_ctrls.wrPerTurnAround::72-75            20      0.55%     99.01% # Writes before turning the bus around for reads
system.mem_ctrls.wrPerTurnAround::76-79            26      0.72%     99.72% # Writes before turning the bus around for reads
system.mem_ctrls.wrPerTurnAround::80-83             5      0.14%     99.86% # Writes before turning the bus around for reads
system.mem_ctrls.wrPerTurnAround::108-111            1      0.03%     99.89% # Writes before turning the bus around for reads
system.mem_ctrls.wrPerTurnAround::128-131            2      0.06%     99.94% # Writes before turning the bus around for reads
system.mem_ctrls.wrPerTurnAround::160-163            2      0.06%    100.00% # Writes before turning the bus around for reads
system.mem_ctrls.wrPerTurnAround::total          3621                       # Writes before turning the bus around for reads
system.mem_ctrls.bytesReadDRAM                8168640                       # Total number of bytes read from DRAM
system.mem_ctrls.bytesReadWrQ                   13312                       # Total number of bytes read from write queue
system.mem_ctrls.bytesWritten                 4983424                       # Total number of bytes written to DRAM
system.mem_ctrls.bytesReadSys                 8181952                       # Total read bytes from the system interface side
system.mem_ctrls.bytesWrittenSys              4984576                       # Total written bytes from the system interface side
system.mem_ctrls.avgRdBW                         0.05                       # Average DRAM read bandwidth in MiByte/s
system.mem_ctrls.avgWrBW                         0.03                       # Average achieved write bandwidth in MiByte/s
system.mem_ctrls.avgRdBWSys                      0.05                       # Average system read bandwidth in MiByte/s
system.mem_ctrls.avgWrBWSys                      0.03                       # Average system write bandwidth in MiByte/s
system.mem_ctrls.peakBW                      12800.00                       # Theoretical peak bandwidth in MiByte/s
system.mem_ctrls.busUtil                         0.00                       # Data bus utilization in percentage
system.mem_ctrls.busUtilRead                     0.00                       # Data bus utilization in percentage for reads
system.mem_ctrls.busUtilWrite                    0.00                       # Data bus utilization in percentage for writes
system.mem_ctrls.totGap                  173823594851000                       # Total gap between requests
system.mem_ctrls.avgGap                  844923587.33                       # Average gap between requests
system.mem_ctrls.masterReadBytes::.switch_cpus0.inst       456960                       # Per-master bytes read from memory
system.mem_ctrls.masterReadBytes::.switch_cpus0.data      3713664                       # Per-master bytes read from memory
system.mem_ctrls.masterReadBytes::.switch_cpus0.dtb.walker        12416                       # Per-master bytes read from memory
system.mem_ctrls.masterReadBytes::.switch_cpus0.itb.walker         9728                       # Per-master bytes read from memory
system.mem_ctrls.masterReadBytes::.switch_cpus1.inst       818176                       # Per-master bytes read from memory
system.mem_ctrls.masterReadBytes::.switch_cpus1.data      1798208                       # Per-master bytes read from memory
system.mem_ctrls.masterReadBytes::.switch_cpus1.dtb.walker        11008                       # Per-master bytes read from memory
system.mem_ctrls.masterReadBytes::.switch_cpus1.itb.walker        13312                       # Per-master bytes read from memory
system.mem_ctrls.masterReadBytes::.switch_cpus2.inst       300224                       # Per-master bytes read from memory
system.mem_ctrls.masterReadBytes::.switch_cpus2.data      1014400                       # Per-master bytes read from memory
system.mem_ctrls.masterReadBytes::.switch_cpus2.dtb.walker        10624                       # Per-master bytes read from memory
system.mem_ctrls.masterReadBytes::.switch_cpus2.itb.walker         9920                       # Per-master bytes read from memory
system.mem_ctrls.masterWriteBytes::.writebacks      4983424                       # Per-master bytes write to memory
system.mem_ctrls.masterReadRate::.switch_cpus0.inst 2628.870214484341                       # Per-master bytes read from memory rate (Bytes/sec)
system.mem_ctrls.masterReadRate::.switch_cpus0.data 21364.541045611819                       # Per-master bytes read from memory rate (Bytes/sec)
system.mem_ctrls.masterReadRate::.switch_cpus0.dtb.walker 71.428686499995                       # Per-master bytes read from memory rate (Bytes/sec)
system.mem_ctrls.masterReadRate::.switch_cpus0.itb.walker 55.964744061852                       # Per-master bytes read from memory rate (Bytes/sec)
system.mem_ctrls.masterReadRate::.switch_cpus1.inst 4706.929526886249                       # Per-master bytes read from memory rate (Bytes/sec)
system.mem_ctrls.masterReadRate::.switch_cpus1.data 10345.009302012120                       # Per-master bytes read from memory rate (Bytes/sec)
system.mem_ctrls.masterReadRate::.switch_cpus1.dtb.walker 63.328526175253                       # Per-master bytes read from memory rate (Bytes/sec)
system.mem_ctrls.masterReadRate::.switch_cpus1.itb.walker 76.583333979376                       # Per-master bytes read from memory rate (Bytes/sec)
system.mem_ctrls.masterReadRate::.switch_cpus2.inst 1727.175094698326                       # Per-master bytes read from memory rate (Bytes/sec)
system.mem_ctrls.masterReadRate::.switch_cpus2.data 5835.797324870701                       # Per-master bytes read from memory rate (Bytes/sec)
system.mem_ctrls.masterReadRate::.switch_cpus2.dtb.walker 61.119391541233                       # Per-master bytes read from memory rate (Bytes/sec)
system.mem_ctrls.masterReadRate::.switch_cpus2.itb.walker 57.069311378862                       # Per-master bytes read from memory rate (Bytes/sec)
system.mem_ctrls.masterWriteRate::.writebacks 28669.412902106124                       # Per-master bytes write to memory rate (Bytes/sec)
system.mem_ctrls.masterReadAccesses::.switch_cpus0.inst         7140                       # Per-master read serviced memory accesses
system.mem_ctrls.masterReadAccesses::.switch_cpus0.data        58211                       # Per-master read serviced memory accesses
system.mem_ctrls.masterReadAccesses::.switch_cpus0.dtb.walker          194                       # Per-master read serviced memory accesses
system.mem_ctrls.masterReadAccesses::.switch_cpus0.itb.walker          152                       # Per-master read serviced memory accesses
system.mem_ctrls.masterReadAccesses::.switch_cpus1.inst        12784                       # Per-master read serviced memory accesses
system.mem_ctrls.masterReadAccesses::.switch_cpus1.data        28114                       # Per-master read serviced memory accesses
system.mem_ctrls.masterReadAccesses::.switch_cpus1.dtb.walker          172                       # Per-master read serviced memory accesses
system.mem_ctrls.masterReadAccesses::.switch_cpus1.itb.walker          208                       # Per-master read serviced memory accesses
system.mem_ctrls.masterReadAccesses::.switch_cpus2.inst         4691                       # Per-master read serviced memory accesses
system.mem_ctrls.masterReadAccesses::.switch_cpus2.data        15856                       # Per-master read serviced memory accesses
system.mem_ctrls.masterReadAccesses::.switch_cpus2.dtb.walker          166                       # Per-master read serviced memory accesses
system.mem_ctrls.masterReadAccesses::.switch_cpus2.itb.walker          155                       # Per-master read serviced memory accesses
system.mem_ctrls.masterWriteAccesses::.writebacks        77884                       # Per-master write serviced memory accesses
system.mem_ctrls.masterReadTotalLat::.switch_cpus0.inst    261822500                       # Per-master read total memory access latency
system.mem_ctrls.masterReadTotalLat::.switch_cpus0.data   2110300251                       # Per-master read total memory access latency
system.mem_ctrls.masterReadTotalLat::.switch_cpus0.dtb.walker      7559000                       # Per-master read total memory access latency
system.mem_ctrls.masterReadTotalLat::.switch_cpus0.itb.walker      5590000                       # Per-master read total memory access latency
system.mem_ctrls.masterReadTotalLat::.switch_cpus1.inst    464565000                       # Per-master read total memory access latency
system.mem_ctrls.masterReadTotalLat::.switch_cpus1.data   1040262500                       # Per-master read total memory access latency
system.mem_ctrls.masterReadTotalLat::.switch_cpus1.dtb.walker      6238750                       # Per-master read total memory access latency
system.mem_ctrls.masterReadTotalLat::.switch_cpus1.itb.walker      7003750                       # Per-master read total memory access latency
system.mem_ctrls.masterReadTotalLat::.switch_cpus2.inst    170991000                       # Per-master read total memory access latency
system.mem_ctrls.masterReadTotalLat::.switch_cpus2.data    583227000                       # Per-master read total memory access latency
system.mem_ctrls.masterReadTotalLat::.switch_cpus2.dtb.walker      5930250                       # Per-master read total memory access latency
system.mem_ctrls.masterReadTotalLat::.switch_cpus2.itb.walker      5161000                       # Per-master read total memory access latency
system.mem_ctrls.masterWriteTotalLat::.writebacks 3909901184949250                       # Per-master write total memory access latency
system.mem_ctrls.masterReadAvgLat::.switch_cpus0.inst     36669.82                       # Per-master read average memory access latency
system.mem_ctrls.masterReadAvgLat::.switch_cpus0.data     36252.60                       # Per-master read average memory access latency
system.mem_ctrls.masterReadAvgLat::.switch_cpus0.dtb.walker     38963.92                       # Per-master read average memory access latency
system.mem_ctrls.masterReadAvgLat::.switch_cpus0.itb.walker     36776.32                       # Per-master read average memory access latency
system.mem_ctrls.masterReadAvgLat::.switch_cpus1.inst     36339.57                       # Per-master read average memory access latency
system.mem_ctrls.masterReadAvgLat::.switch_cpus1.data     37001.58                       # Per-master read average memory access latency
system.mem_ctrls.masterReadAvgLat::.switch_cpus1.dtb.walker     36271.80                       # Per-master read average memory access latency
system.mem_ctrls.masterReadAvgLat::.switch_cpus1.itb.walker     33671.88                       # Per-master read average memory access latency
system.mem_ctrls.masterReadAvgLat::.switch_cpus2.inst     36450.86                       # Per-master read average memory access latency
system.mem_ctrls.masterReadAvgLat::.switch_cpus2.data     36782.73                       # Per-master read average memory access latency
system.mem_ctrls.masterReadAvgLat::.switch_cpus2.dtb.walker     35724.40                       # Per-master read average memory access latency
system.mem_ctrls.masterReadAvgLat::.switch_cpus2.itb.walker     33296.77                       # Per-master read average memory access latency
system.mem_ctrls.masterWriteAvgLat::.writebacks 50201597053.94                       # Per-master write average memory access latency
system.mem_ctrls.pageHitRate                    24.16                       # Row buffer hit rate, read and write combined
system.mem_ctrls.rank1.actEnergy            559197660                       # Energy for activate commands per rank (pJ)
system.mem_ctrls.rank1.preEnergy            297220605                       # Energy for precharge commands per rank (pJ)
system.mem_ctrls.rank1.readEnergy           452833080                       # Energy for read commands per rank (pJ)
system.mem_ctrls.rank1.writeEnergy          214416720                       # Energy for write commands per rank (pJ)
system.mem_ctrls.rank1.refreshEnergy     13721497489440.001953                       # Energy for refresh commands per rank (pJ)
system.mem_ctrls.rank1.actBackEnergy     2622212533050                       # Energy for active background per rank (pJ)
system.mem_ctrls.rank1.preBackEnergy     64540126499520                       # Energy for precharge background per rank (pJ)
system.mem_ctrls.rank1.actPowerDownEnergy            0                       # Energy for active power-down per rank (pJ)
system.mem_ctrls.rank1.prePowerDownEnergy            0                       # Energy for precharge power-down per rank (pJ)
system.mem_ctrls.rank1.selfRefreshEnergy            0                       # Energy for self refresh per rank (pJ)
system.mem_ctrls.rank1.totalEnergy       80885360190075                       # Total energy per rank (pJ)
system.mem_ctrls.rank1.averagePower        465.329819                       # Core power per rank (mW)
system.mem_ctrls.rank1.totalIdleTime                0                       # Total Idle time Per DRAM Rank
system.mem_ctrls.rank1.memoryStateTime::IDLE 167765365670994                       # Time in different power states
system.mem_ctrls.rank1.memoryStateTime::REF 5804355960000                       # Time in different power states
system.mem_ctrls.rank1.memoryStateTime::SREF            0                       # Time in different power states
system.mem_ctrls.rank1.memoryStateTime::PRE_PDN            0                       # Time in different power states
system.mem_ctrls.rank1.memoryStateTime::ACT 253998329006                       # Time in different power states
system.mem_ctrls.rank1.memoryStateTime::ACT_PDN            0                       # Time in different power states
system.mem_ctrls.rank0.actEnergy            553607040                       # Energy for activate commands per rank (pJ)
system.mem_ctrls.rank0.preEnergy            294249120                       # Energy for precharge commands per rank (pJ)
system.mem_ctrls.rank0.readEnergy           458480820                       # Energy for read commands per rank (pJ)
system.mem_ctrls.rank0.writeEnergy          192043800                       # Energy for write commands per rank (pJ)
system.mem_ctrls.rank0.refreshEnergy     13721497489440.001953                       # Energy for refresh commands per rank (pJ)
system.mem_ctrls.rank0.actBackEnergy     2623629957180                       # Energy for active background per rank (pJ)
system.mem_ctrls.rank0.preBackEnergy     64538932879200                       # Energy for precharge background per rank (pJ)
system.mem_ctrls.rank0.actPowerDownEnergy            0                       # Energy for active power-down per rank (pJ)
system.mem_ctrls.rank0.prePowerDownEnergy            0                       # Energy for precharge power-down per rank (pJ)
system.mem_ctrls.rank0.selfRefreshEnergy            0                       # Energy for self refresh per rank (pJ)
system.mem_ctrls.rank0.totalEnergy       80885558706600                       # Total energy per rank (pJ)
system.mem_ctrls.rank0.averagePower        465.330961                       # Core power per rank (mW)
system.mem_ctrls.rank0.totalIdleTime                0                       # Total Idle time Per DRAM Rank
system.mem_ctrls.rank0.memoryStateTime::IDLE 167762247345743                       # Time in different power states
system.mem_ctrls.rank0.memoryStateTime::REF 5804355960000                       # Time in different power states
system.mem_ctrls.rank0.memoryStateTime::SREF            0                       # Time in different power states
system.mem_ctrls.rank0.memoryStateTime::PRE_PDN            0                       # Time in different power states
system.mem_ctrls.rank0.memoryStateTime::ACT 257116654257                       # Time in different power states
system.mem_ctrls.rank0.memoryStateTime::ACT_PDN            0                       # Time in different power states
system.iobus.pwrStateResidencyTicks::UNDEFINED 174874942994500                       # Cumulative time (in ticks) in various power states
system.iobus.trans_dist::ReadReq                10915                       # Transaction distribution
system.iobus.trans_dist::ReadResp               10915                       # Transaction distribution
system.iobus.trans_dist::WriteReq               20988                       # Transaction distribution
system.iobus.trans_dist::WriteResp              20988                       # Transaction distribution
system.iobus.pkt_count_system.bridge.master::system.realview.uart.pio          996                       # Packet count per connected master and slave (bytes)
system.iobus.pkt_count_system.bridge.master::system.pci_ide.pio         9620                       # Packet count per connected master and slave (bytes)
system.iobus.pkt_count_system.bridge.master::total        10616                       # Packet count per connected master and slave (bytes)
system.iobus.pkt_count_system.pci_ide.dma::system.iocache.cpu_side        53190                       # Packet count per connected master and slave (bytes)
system.iobus.pkt_count_system.pci_ide.dma::total        53190                       # Packet count per connected master and slave (bytes)
system.iobus.pkt_count::total                   63806                       # Packet count per connected master and slave (bytes)
system.iobus.pkt_size_system.bridge.master::system.realview.uart.pio          996                       # Cumulative packet size per connected master and slave (bytes)
system.iobus.pkt_size_system.bridge.master::system.pci_ide.pio         5365                       # Cumulative packet size per connected master and slave (bytes)
system.iobus.pkt_size_system.bridge.master::total         6361                       # Cumulative packet size per connected master and slave (bytes)
system.iobus.pkt_size_system.pci_ide.dma::system.iocache.cpu_side      1687128                       # Cumulative packet size per connected master and slave (bytes)
system.iobus.pkt_size_system.pci_ide.dma::total      1687128                       # Cumulative packet size per connected master and slave (bytes)
system.iobus.pkt_size::total                  1693489                       # Cumulative packet size per connected master and slave (bytes)
system.iobus.reqLayer1.occupancy               880500                       # Layer occupancy (ticks)
system.iobus.reqLayer1.utilization                0.0                       # Layer utilization (%)
system.iobus.respLayer1.occupancy            58862000                       # Layer occupancy (ticks)
system.iobus.respLayer1.utilization               0.0                       # Layer utilization (%)
system.iobus.respLayer0.occupancy             7956000                       # Layer occupancy (ticks)
system.iobus.respLayer0.utilization               0.0                       # Layer utilization (%)
system.iobus.reqLayer10.occupancy             8542500                       # Layer occupancy (ticks)
system.iobus.reqLayer10.utilization               0.0                       # Layer utilization (%)
system.iobus.reqLayer11.occupancy           110662322                       # Layer occupancy (ticks)
system.iobus.reqLayer11.utilization               0.0                       # Layer utilization (%)

---------- End Simulation Statistics   ----------
