
---------- Begin Simulation Statistics ----------
final_tick                               3595806379500                       # Number of ticks from beginning of simulation (restored from checkpoints and never reset)
host_inst_rate                                 412957                       # Simulator instruction rate (inst/s)
host_mem_usage                               17258528                       # Number of bytes of host memory used
host_op_rate                                   487297                       # Simulator op (including micro ops) rate (op/s)
host_seconds                                    85.58                       # Real time elapsed on the host
host_tick_rate                            29734839492                       # Simulator tick rate (ticks/s)
sim_freq                                 1000000000000                       # Frequency of simulated ticks
sim_insts                                    35339054                       # Number of instructions simulated
sim_ops                                      41700850                       # Number of ops (including micro ops) simulated
sim_seconds                                  2.544583                       # Number of seconds simulated
sim_ticks                                2544583355000                       # Number of ticks simulated
system.cpu0.Branches                                4                       # Number of branches fetched
system.cpu0.committedInsts                         16                       # Number of instructions committed
system.cpu0.committedOps                           20                       # Number of ops (including micro ops) committed
system.cpu0.dtb.accesses                            6                       # DTB accesses
system.cpu0.dtb.align_faults                        0                       # Number of TLB faults due to alignment restrictions
system.cpu0.dtb.domain_faults                       0                       # Number of TLB faults due to domain restrictions
system.cpu0.dtb.flush_entries                       2                       # Number of entries that have been flushed from TLB
system.cpu0.dtb.flush_tlb                           2                       # Number of times complete TLB was flushed
system.cpu0.dtb.flush_tlb_asid                      0                       # Number of times TLB was flushed by ASID
system.cpu0.dtb.flush_tlb_mva                       0                       # Number of times TLB was flushed by MVA
system.cpu0.dtb.flush_tlb_mva_asid                  0                       # Number of times TLB was flushed by MVA & ASID
system.cpu0.dtb.hits                                4                       # DTB hits
system.cpu0.dtb.inst_accesses                       0                       # ITB inst accesses
system.cpu0.dtb.inst_hits                           0                       # ITB inst hits
system.cpu0.dtb.inst_misses                         0                       # ITB inst misses
system.cpu0.dtb.misses                              2                       # DTB misses
system.cpu0.dtb.perms_faults                        0                       # Number of TLB faults due to permissions restrictions
system.cpu0.dtb.prefetch_faults                     0                       # Number of TLB faults due to prefetch
system.cpu0.dtb.read_accesses                       4                       # DTB read accesses
system.cpu0.dtb.read_hits                           2                       # DTB read hits
system.cpu0.dtb.read_misses                         2                       # DTB read misses
system.cpu0.dtb.stage2_mmu.stage2_tlb.accesses            0                       # DTB accesses
system.cpu0.dtb.stage2_mmu.stage2_tlb.align_faults            0                       # Number of TLB faults due to alignment restrictions
system.cpu0.dtb.stage2_mmu.stage2_tlb.domain_faults            0                       # Number of TLB faults due to domain restrictions
system.cpu0.dtb.stage2_mmu.stage2_tlb.flush_entries            0                       # Number of entries that have been flushed from TLB
system.cpu0.dtb.stage2_mmu.stage2_tlb.flush_tlb            0                       # Number of times complete TLB was flushed
system.cpu0.dtb.stage2_mmu.stage2_tlb.flush_tlb_asid            0                       # Number of times TLB was flushed by ASID
system.cpu0.dtb.stage2_mmu.stage2_tlb.flush_tlb_mva            0                       # Number of times TLB was flushed by MVA
system.cpu0.dtb.stage2_mmu.stage2_tlb.flush_tlb_mva_asid            0                       # Number of times TLB was flushed by MVA & ASID
system.cpu0.dtb.stage2_mmu.stage2_tlb.hits            0                       # DTB hits
system.cpu0.dtb.stage2_mmu.stage2_tlb.inst_accesses            0                       # ITB inst accesses
system.cpu0.dtb.stage2_mmu.stage2_tlb.inst_hits            0                       # ITB inst hits
system.cpu0.dtb.stage2_mmu.stage2_tlb.inst_misses            0                       # ITB inst misses
system.cpu0.dtb.stage2_mmu.stage2_tlb.misses            0                       # DTB misses
system.cpu0.dtb.stage2_mmu.stage2_tlb.perms_faults            0                       # Number of TLB faults due to permissions restrictions
system.cpu0.dtb.stage2_mmu.stage2_tlb.prefetch_faults            0                       # Number of TLB faults due to prefetch
system.cpu0.dtb.stage2_mmu.stage2_tlb.read_accesses            0                       # DTB read accesses
system.cpu0.dtb.stage2_mmu.stage2_tlb.read_hits            0                       # DTB read hits
system.cpu0.dtb.stage2_mmu.stage2_tlb.read_misses            0                       # DTB read misses
system.cpu0.dtb.stage2_mmu.stage2_tlb.walker.walkRequestOrigin_Requested::Data            0                       # Table walker requests started/completed, data/inst
system.cpu0.dtb.stage2_mmu.stage2_tlb.walker.walkRequestOrigin_Requested::Inst            0                       # Table walker requests started/completed, data/inst
system.cpu0.dtb.stage2_mmu.stage2_tlb.walker.walkRequestOrigin_Requested::total            0                       # Table walker requests started/completed, data/inst
system.cpu0.dtb.stage2_mmu.stage2_tlb.walker.walkRequestOrigin_Completed::Data            0                       # Table walker requests started/completed, data/inst
system.cpu0.dtb.stage2_mmu.stage2_tlb.walker.walkRequestOrigin_Completed::Inst            0                       # Table walker requests started/completed, data/inst
system.cpu0.dtb.stage2_mmu.stage2_tlb.walker.walkRequestOrigin_Completed::total            0                       # Table walker requests started/completed, data/inst
system.cpu0.dtb.stage2_mmu.stage2_tlb.walker.walkRequestOrigin::total            0                       # Table walker requests started/completed, data/inst
system.cpu0.dtb.stage2_mmu.stage2_tlb.walker.walks            0                       # Table walker walks requested
system.cpu0.dtb.stage2_mmu.stage2_tlb.write_accesses            0                       # DTB write accesses
system.cpu0.dtb.stage2_mmu.stage2_tlb.write_hits            0                       # DTB write hits
system.cpu0.dtb.stage2_mmu.stage2_tlb.write_misses            0                       # DTB write misses
system.cpu0.dtb.walker.walkPageSizes::4K            2    100.00%    100.00% # Table walker page sizes translated
system.cpu0.dtb.walker.walkPageSizes::total            2                       # Table walker page sizes translated
system.cpu0.dtb.walker.walkRequestOrigin_Requested::Data            2                       # Table walker requests started/completed, data/inst
system.cpu0.dtb.walker.walkRequestOrigin_Requested::Inst            0                       # Table walker requests started/completed, data/inst
system.cpu0.dtb.walker.walkRequestOrigin_Requested::total            2                       # Table walker requests started/completed, data/inst
system.cpu0.dtb.walker.walkRequestOrigin_Completed::Data            2                       # Table walker requests started/completed, data/inst
system.cpu0.dtb.walker.walkRequestOrigin_Completed::Inst            0                       # Table walker requests started/completed, data/inst
system.cpu0.dtb.walker.walkRequestOrigin_Completed::total            2                       # Table walker requests started/completed, data/inst
system.cpu0.dtb.walker.walkRequestOrigin::total            4                       # Table walker requests started/completed, data/inst
system.cpu0.dtb.walker.walkWaitTime::samples            2                       # Table walker wait (enqueue to first request) latency
system.cpu0.dtb.walker.walkWaitTime::0              2    100.00%    100.00% # Table walker wait (enqueue to first request) latency
system.cpu0.dtb.walker.walkWaitTime::total            2                       # Table walker wait (enqueue to first request) latency
system.cpu0.dtb.walker.walks                        2                       # Table walker walks requested
system.cpu0.dtb.walker.walksLong                    2                       # Table walker walks initiated with long descriptors
system.cpu0.dtb.walker.walksPending::samples  -1043953020                       # Table walker pending requests distribution
system.cpu0.dtb.walker.walksPending::mean    -0.000009                       # Table walker pending requests distribution
system.cpu0.dtb.walker.walksPending::0    -1043962020    100.00%    100.00% # Table walker pending requests distribution
system.cpu0.dtb.walker.walksPending::1           9000     -0.00%    100.00% # Table walker pending requests distribution
system.cpu0.dtb.walker.walksPending::total  -1043953020                       # Table walker pending requests distribution
system.cpu0.dtb.write_accesses                      2                       # DTB write accesses
system.cpu0.dtb.write_hits                          2                       # DTB write hits
system.cpu0.dtb.write_misses                        0                       # DTB write misses
system.cpu0.idle_fraction                           0                       # Percentage of idle cycles
system.cpu0.itb.accesses                           16                       # DTB accesses
system.cpu0.itb.align_faults                        0                       # Number of TLB faults due to alignment restrictions
system.cpu0.itb.domain_faults                       0                       # Number of TLB faults due to domain restrictions
system.cpu0.itb.flush_entries                       4                       # Number of entries that have been flushed from TLB
system.cpu0.itb.flush_tlb                           2                       # Number of times complete TLB was flushed
system.cpu0.itb.flush_tlb_asid                      0                       # Number of times TLB was flushed by ASID
system.cpu0.itb.flush_tlb_mva                       0                       # Number of times TLB was flushed by MVA
system.cpu0.itb.flush_tlb_mva_asid                  0                       # Number of times TLB was flushed by MVA & ASID
system.cpu0.itb.hits                               12                       # DTB hits
system.cpu0.itb.inst_accesses                      16                       # ITB inst accesses
system.cpu0.itb.inst_hits                          12                       # ITB inst hits
system.cpu0.itb.inst_misses                         4                       # ITB inst misses
system.cpu0.itb.misses                              4                       # DTB misses
system.cpu0.itb.perms_faults                        0                       # Number of TLB faults due to permissions restrictions
system.cpu0.itb.prefetch_faults                     0                       # Number of TLB faults due to prefetch
system.cpu0.itb.read_accesses                       0                       # DTB read accesses
system.cpu0.itb.read_hits                           0                       # DTB read hits
system.cpu0.itb.read_misses                         0                       # DTB read misses
system.cpu0.itb.stage2_mmu.stage2_tlb.accesses            0                       # DTB accesses
system.cpu0.itb.stage2_mmu.stage2_tlb.align_faults            0                       # Number of TLB faults due to alignment restrictions
system.cpu0.itb.stage2_mmu.stage2_tlb.domain_faults            0                       # Number of TLB faults due to domain restrictions
system.cpu0.itb.stage2_mmu.stage2_tlb.flush_entries            0                       # Number of entries that have been flushed from TLB
system.cpu0.itb.stage2_mmu.stage2_tlb.flush_tlb            0                       # Number of times complete TLB was flushed
system.cpu0.itb.stage2_mmu.stage2_tlb.flush_tlb_asid            0                       # Number of times TLB was flushed by ASID
system.cpu0.itb.stage2_mmu.stage2_tlb.flush_tlb_mva            0                       # Number of times TLB was flushed by MVA
system.cpu0.itb.stage2_mmu.stage2_tlb.flush_tlb_mva_asid            0                       # Number of times TLB was flushed by MVA & ASID
system.cpu0.itb.stage2_mmu.stage2_tlb.hits            0                       # DTB hits
system.cpu0.itb.stage2_mmu.stage2_tlb.inst_accesses            0                       # ITB inst accesses
system.cpu0.itb.stage2_mmu.stage2_tlb.inst_hits            0                       # ITB inst hits
system.cpu0.itb.stage2_mmu.stage2_tlb.inst_misses            0                       # ITB inst misses
system.cpu0.itb.stage2_mmu.stage2_tlb.misses            0                       # DTB misses
system.cpu0.itb.stage2_mmu.stage2_tlb.perms_faults            0                       # Number of TLB faults due to permissions restrictions
system.cpu0.itb.stage2_mmu.stage2_tlb.prefetch_faults            0                       # Number of TLB faults due to prefetch
system.cpu0.itb.stage2_mmu.stage2_tlb.read_accesses            0                       # DTB read accesses
system.cpu0.itb.stage2_mmu.stage2_tlb.read_hits            0                       # DTB read hits
system.cpu0.itb.stage2_mmu.stage2_tlb.read_misses            0                       # DTB read misses
system.cpu0.itb.stage2_mmu.stage2_tlb.walker.walkRequestOrigin_Requested::Data            0                       # Table walker requests started/completed, data/inst
system.cpu0.itb.stage2_mmu.stage2_tlb.walker.walkRequestOrigin_Requested::Inst            0                       # Table walker requests started/completed, data/inst
system.cpu0.itb.stage2_mmu.stage2_tlb.walker.walkRequestOrigin_Requested::total            0                       # Table walker requests started/completed, data/inst
system.cpu0.itb.stage2_mmu.stage2_tlb.walker.walkRequestOrigin_Completed::Data            0                       # Table walker requests started/completed, data/inst
system.cpu0.itb.stage2_mmu.stage2_tlb.walker.walkRequestOrigin_Completed::Inst            0                       # Table walker requests started/completed, data/inst
system.cpu0.itb.stage2_mmu.stage2_tlb.walker.walkRequestOrigin_Completed::total            0                       # Table walker requests started/completed, data/inst
system.cpu0.itb.stage2_mmu.stage2_tlb.walker.walkRequestOrigin::total            0                       # Table walker requests started/completed, data/inst
system.cpu0.itb.stage2_mmu.stage2_tlb.walker.walks            0                       # Table walker walks requested
system.cpu0.itb.stage2_mmu.stage2_tlb.write_accesses            0                       # DTB write accesses
system.cpu0.itb.stage2_mmu.stage2_tlb.write_hits            0                       # DTB write hits
system.cpu0.itb.stage2_mmu.stage2_tlb.write_misses            0                       # DTB write misses
system.cpu0.itb.walker.walkPageSizes::4K            4    100.00%    100.00% # Table walker page sizes translated
system.cpu0.itb.walker.walkPageSizes::total            4                       # Table walker page sizes translated
system.cpu0.itb.walker.walkRequestOrigin_Requested::Data            0                       # Table walker requests started/completed, data/inst
system.cpu0.itb.walker.walkRequestOrigin_Requested::Inst            4                       # Table walker requests started/completed, data/inst
system.cpu0.itb.walker.walkRequestOrigin_Requested::total            4                       # Table walker requests started/completed, data/inst
system.cpu0.itb.walker.walkRequestOrigin_Completed::Data            0                       # Table walker requests started/completed, data/inst
system.cpu0.itb.walker.walkRequestOrigin_Completed::Inst            4                       # Table walker requests started/completed, data/inst
system.cpu0.itb.walker.walkRequestOrigin_Completed::total            4                       # Table walker requests started/completed, data/inst
system.cpu0.itb.walker.walkRequestOrigin::total            8                       # Table walker requests started/completed, data/inst
system.cpu0.itb.walker.walkWaitTime::samples            4                       # Table walker wait (enqueue to first request) latency
system.cpu0.itb.walker.walkWaitTime::0              4    100.00%    100.00% # Table walker wait (enqueue to first request) latency
system.cpu0.itb.walker.walkWaitTime::total            4                       # Table walker wait (enqueue to first request) latency
system.cpu0.itb.walker.walks                        4                       # Table walker walks requested
system.cpu0.itb.walker.walksLong                    4                       # Table walker walks initiated with long descriptors
system.cpu0.itb.walker.walksPending::samples  -1043953020                       # Table walker pending requests distribution
system.cpu0.itb.walker.walksPending::mean    -0.000009                       # Table walker pending requests distribution
system.cpu0.itb.walker.walksPending::0    -1043962520    100.00%    100.00% # Table walker pending requests distribution
system.cpu0.itb.walker.walksPending::1           9500     -0.00%    100.00% # Table walker pending requests distribution
system.cpu0.itb.walker.walksPending::total  -1043953020                       # Table walker pending requests distribution
system.cpu0.itb.write_accesses                      0                       # DTB write accesses
system.cpu0.itb.write_hits                          0                       # DTB write hits
system.cpu0.itb.write_misses                        0                       # DTB write misses
system.cpu0.kern.inst.arm                           0                       # number of arm instructions executed
system.cpu0.kern.inst.quiesce                     303                       # number of quiesce instructions executed
system.cpu0.not_idle_fraction                       1                       # Percentage of non-idle cycles
system.cpu0.numCycles                              20                       # number of cpu cycles simulated
system.cpu0.numWorkItemsCompleted                   0                       # number of work items this cpu completed
system.cpu0.numWorkItemsStarted                     0                       # number of work items this cpu started
system.cpu0.num_busy_cycles                        20                       # Number of busy cycles
system.cpu0.num_conditional_control_insts            1                       # number of instructions that are conditional controls
system.cpu0.num_fp_alu_accesses                     0                       # Number of float alu accesses
system.cpu0.num_fp_insts                            0                       # number of float instructions
system.cpu0.num_fp_register_reads                   0                       # number of times the floating registers were read
system.cpu0.num_fp_register_writes                  0                       # number of times the floating registers were written
system.cpu0.num_func_calls                          3                       # number of times a function call or return occured
system.cpu0.num_idle_cycles                         0                       # Number of idle cycles
system.cpu0.num_int_alu_accesses                   20                       # Number of integer alu accesses
system.cpu0.num_int_insts                          20                       # number of integer instructions
system.cpu0.num_int_register_reads                 22                       # number of times the integer registers were read
system.cpu0.num_int_register_writes                16                       # number of times the integer registers were written
system.cpu0.num_load_insts                          4                       # Number of load instructions
system.cpu0.num_mem_refs                            6                       # number of memory refs
system.cpu0.num_store_insts                         2                       # Number of store instructions
system.cpu0.num_vec_alu_accesses                    0                       # Number of vector alu accesses
system.cpu0.num_vec_insts                           0                       # number of vector instructions
system.cpu0.num_vec_register_reads                  0                       # number of times the vector registers were read
system.cpu0.num_vec_register_writes                 0                       # number of times the vector registers were written
system.cpu0.op_class::No_OpClass                    0      0.00%      0.00% # Class of executed instruction
system.cpu0.op_class::IntAlu                       14     70.00%     70.00% # Class of executed instruction
system.cpu0.op_class::IntMult                       0      0.00%     70.00% # Class of executed instruction
system.cpu0.op_class::IntDiv                        0      0.00%     70.00% # Class of executed instruction
system.cpu0.op_class::FloatAdd                      0      0.00%     70.00% # Class of executed instruction
system.cpu0.op_class::FloatCmp                      0      0.00%     70.00% # Class of executed instruction
system.cpu0.op_class::FloatCvt                      0      0.00%     70.00% # Class of executed instruction
system.cpu0.op_class::FloatMult                     0      0.00%     70.00% # Class of executed instruction
system.cpu0.op_class::FloatMultAcc                  0      0.00%     70.00% # Class of executed instruction
system.cpu0.op_class::FloatDiv                      0      0.00%     70.00% # Class of executed instruction
system.cpu0.op_class::FloatMisc                     0      0.00%     70.00% # Class of executed instruction
system.cpu0.op_class::FloatSqrt                     0      0.00%     70.00% # Class of executed instruction
system.cpu0.op_class::SimdAdd                       0      0.00%     70.00% # Class of executed instruction
system.cpu0.op_class::SimdAddAcc                    0      0.00%     70.00% # Class of executed instruction
system.cpu0.op_class::SimdAlu                       0      0.00%     70.00% # Class of executed instruction
system.cpu0.op_class::SimdCmp                       0      0.00%     70.00% # Class of executed instruction
system.cpu0.op_class::SimdCvt                       0      0.00%     70.00% # Class of executed instruction
system.cpu0.op_class::SimdMisc                      0      0.00%     70.00% # Class of executed instruction
system.cpu0.op_class::SimdMult                      0      0.00%     70.00% # Class of executed instruction
system.cpu0.op_class::SimdMultAcc                   0      0.00%     70.00% # Class of executed instruction
system.cpu0.op_class::SimdShift                     0      0.00%     70.00% # Class of executed instruction
system.cpu0.op_class::SimdShiftAcc                  0      0.00%     70.00% # Class of executed instruction
system.cpu0.op_class::SimdDiv                       0      0.00%     70.00% # Class of executed instruction
system.cpu0.op_class::SimdSqrt                      0      0.00%     70.00% # Class of executed instruction
system.cpu0.op_class::SimdFloatAdd                  0      0.00%     70.00% # Class of executed instruction
system.cpu0.op_class::SimdFloatAlu                  0      0.00%     70.00% # Class of executed instruction
system.cpu0.op_class::SimdFloatCmp                  0      0.00%     70.00% # Class of executed instruction
system.cpu0.op_class::SimdFloatCvt                  0      0.00%     70.00% # Class of executed instruction
system.cpu0.op_class::SimdFloatDiv                  0      0.00%     70.00% # Class of executed instruction
system.cpu0.op_class::SimdFloatMisc                 0      0.00%     70.00% # Class of executed instruction
system.cpu0.op_class::SimdFloatMult                 0      0.00%     70.00% # Class of executed instruction
system.cpu0.op_class::SimdFloatMultAcc              0      0.00%     70.00% # Class of executed instruction
system.cpu0.op_class::SimdFloatSqrt                 0      0.00%     70.00% # Class of executed instruction
system.cpu0.op_class::SimdReduceAdd                 0      0.00%     70.00% # Class of executed instruction
system.cpu0.op_class::SimdReduceAlu                 0      0.00%     70.00% # Class of executed instruction
system.cpu0.op_class::SimdReduceCmp                 0      0.00%     70.00% # Class of executed instruction
system.cpu0.op_class::SimdFloatReduceAdd            0      0.00%     70.00% # Class of executed instruction
system.cpu0.op_class::SimdFloatReduceCmp            0      0.00%     70.00% # Class of executed instruction
system.cpu0.op_class::SimdAes                       0      0.00%     70.00% # Class of executed instruction
system.cpu0.op_class::SimdAesMix                    0      0.00%     70.00% # Class of executed instruction
system.cpu0.op_class::SimdSha1Hash                  0      0.00%     70.00% # Class of executed instruction
system.cpu0.op_class::SimdSha1Hash2                 0      0.00%     70.00% # Class of executed instruction
system.cpu0.op_class::SimdSha256Hash                0      0.00%     70.00% # Class of executed instruction
system.cpu0.op_class::SimdSha256Hash2               0      0.00%     70.00% # Class of executed instruction
system.cpu0.op_class::SimdShaSigma2                 0      0.00%     70.00% # Class of executed instruction
system.cpu0.op_class::SimdShaSigma3                 0      0.00%     70.00% # Class of executed instruction
system.cpu0.op_class::SimdPredAlu                   0      0.00%     70.00% # Class of executed instruction
system.cpu0.op_class::MemRead                       4     20.00%     90.00% # Class of executed instruction
system.cpu0.op_class::MemWrite                      2     10.00%    100.00% # Class of executed instruction
system.cpu0.op_class::FloatMemRead                  0      0.00%    100.00% # Class of executed instruction
system.cpu0.op_class::FloatMemWrite                 0      0.00%    100.00% # Class of executed instruction
system.cpu0.op_class::IprAccess                     0      0.00%    100.00% # Class of executed instruction
system.cpu0.op_class::InstPrefetch                  0      0.00%    100.00% # Class of executed instruction
system.cpu0.op_class::total                        20                       # Class of executed instruction
system.cpu1.Branches                                1                       # Number of branches fetched
system.cpu1.committedInsts                          1                       # Number of instructions committed
system.cpu1.committedOps                            1                       # Number of ops (including micro ops) committed
system.cpu1.dtb.accesses                            0                       # DTB accesses
system.cpu1.dtb.align_faults                        0                       # Number of TLB faults due to alignment restrictions
system.cpu1.dtb.domain_faults                       0                       # Number of TLB faults due to domain restrictions
system.cpu1.dtb.flush_entries                       0                       # Number of entries that have been flushed from TLB
system.cpu1.dtb.flush_tlb                           2                       # Number of times complete TLB was flushed
system.cpu1.dtb.flush_tlb_asid                      0                       # Number of times TLB was flushed by ASID
system.cpu1.dtb.flush_tlb_mva                       0                       # Number of times TLB was flushed by MVA
system.cpu1.dtb.flush_tlb_mva_asid                  0                       # Number of times TLB was flushed by MVA & ASID
system.cpu1.dtb.hits                                0                       # DTB hits
system.cpu1.dtb.inst_accesses                       0                       # ITB inst accesses
system.cpu1.dtb.inst_hits                           0                       # ITB inst hits
system.cpu1.dtb.inst_misses                         0                       # ITB inst misses
system.cpu1.dtb.misses                              0                       # DTB misses
system.cpu1.dtb.perms_faults                        0                       # Number of TLB faults due to permissions restrictions
system.cpu1.dtb.prefetch_faults                     0                       # Number of TLB faults due to prefetch
system.cpu1.dtb.read_accesses                       0                       # DTB read accesses
system.cpu1.dtb.read_hits                           0                       # DTB read hits
system.cpu1.dtb.read_misses                         0                       # DTB read misses
system.cpu1.dtb.stage2_mmu.stage2_tlb.accesses            0                       # DTB accesses
system.cpu1.dtb.stage2_mmu.stage2_tlb.align_faults            0                       # Number of TLB faults due to alignment restrictions
system.cpu1.dtb.stage2_mmu.stage2_tlb.domain_faults            0                       # Number of TLB faults due to domain restrictions
system.cpu1.dtb.stage2_mmu.stage2_tlb.flush_entries            0                       # Number of entries that have been flushed from TLB
system.cpu1.dtb.stage2_mmu.stage2_tlb.flush_tlb            0                       # Number of times complete TLB was flushed
system.cpu1.dtb.stage2_mmu.stage2_tlb.flush_tlb_asid            0                       # Number of times TLB was flushed by ASID
system.cpu1.dtb.stage2_mmu.stage2_tlb.flush_tlb_mva            0                       # Number of times TLB was flushed by MVA
system.cpu1.dtb.stage2_mmu.stage2_tlb.flush_tlb_mva_asid            0                       # Number of times TLB was flushed by MVA & ASID
system.cpu1.dtb.stage2_mmu.stage2_tlb.hits            0                       # DTB hits
system.cpu1.dtb.stage2_mmu.stage2_tlb.inst_accesses            0                       # ITB inst accesses
system.cpu1.dtb.stage2_mmu.stage2_tlb.inst_hits            0                       # ITB inst hits
system.cpu1.dtb.stage2_mmu.stage2_tlb.inst_misses            0                       # ITB inst misses
system.cpu1.dtb.stage2_mmu.stage2_tlb.misses            0                       # DTB misses
system.cpu1.dtb.stage2_mmu.stage2_tlb.perms_faults            0                       # Number of TLB faults due to permissions restrictions
system.cpu1.dtb.stage2_mmu.stage2_tlb.prefetch_faults            0                       # Number of TLB faults due to prefetch
system.cpu1.dtb.stage2_mmu.stage2_tlb.read_accesses            0                       # DTB read accesses
system.cpu1.dtb.stage2_mmu.stage2_tlb.read_hits            0                       # DTB read hits
system.cpu1.dtb.stage2_mmu.stage2_tlb.read_misses            0                       # DTB read misses
system.cpu1.dtb.stage2_mmu.stage2_tlb.walker.walkRequestOrigin_Requested::Data            0                       # Table walker requests started/completed, data/inst
system.cpu1.dtb.stage2_mmu.stage2_tlb.walker.walkRequestOrigin_Requested::Inst            0                       # Table walker requests started/completed, data/inst
system.cpu1.dtb.stage2_mmu.stage2_tlb.walker.walkRequestOrigin_Requested::total            0                       # Table walker requests started/completed, data/inst
system.cpu1.dtb.stage2_mmu.stage2_tlb.walker.walkRequestOrigin_Completed::Data            0                       # Table walker requests started/completed, data/inst
system.cpu1.dtb.stage2_mmu.stage2_tlb.walker.walkRequestOrigin_Completed::Inst            0                       # Table walker requests started/completed, data/inst
system.cpu1.dtb.stage2_mmu.stage2_tlb.walker.walkRequestOrigin_Completed::total            0                       # Table walker requests started/completed, data/inst
system.cpu1.dtb.stage2_mmu.stage2_tlb.walker.walkRequestOrigin::total            0                       # Table walker requests started/completed, data/inst
system.cpu1.dtb.stage2_mmu.stage2_tlb.walker.walks            0                       # Table walker walks requested
system.cpu1.dtb.stage2_mmu.stage2_tlb.write_accesses            0                       # DTB write accesses
system.cpu1.dtb.stage2_mmu.stage2_tlb.write_hits            0                       # DTB write hits
system.cpu1.dtb.stage2_mmu.stage2_tlb.write_misses            0                       # DTB write misses
system.cpu1.dtb.walker.walkRequestOrigin_Requested::Data            0                       # Table walker requests started/completed, data/inst
system.cpu1.dtb.walker.walkRequestOrigin_Requested::Inst            0                       # Table walker requests started/completed, data/inst
system.cpu1.dtb.walker.walkRequestOrigin_Requested::total            0                       # Table walker requests started/completed, data/inst
system.cpu1.dtb.walker.walkRequestOrigin_Completed::Data            0                       # Table walker requests started/completed, data/inst
system.cpu1.dtb.walker.walkRequestOrigin_Completed::Inst            0                       # Table walker requests started/completed, data/inst
system.cpu1.dtb.walker.walkRequestOrigin_Completed::total            0                       # Table walker requests started/completed, data/inst
system.cpu1.dtb.walker.walkRequestOrigin::total            0                       # Table walker requests started/completed, data/inst
system.cpu1.dtb.walker.walks                        0                       # Table walker walks requested
system.cpu1.dtb.write_accesses                      0                       # DTB write accesses
system.cpu1.dtb.write_hits                          0                       # DTB write hits
system.cpu1.dtb.write_misses                        0                       # DTB write misses
system.cpu1.idle_fraction                    0.000000                       # Percentage of idle cycles
system.cpu1.itb.accesses                            1                       # DTB accesses
system.cpu1.itb.align_faults                        0                       # Number of TLB faults due to alignment restrictions
system.cpu1.itb.domain_faults                       0                       # Number of TLB faults due to domain restrictions
system.cpu1.itb.flush_entries                       1                       # Number of entries that have been flushed from TLB
system.cpu1.itb.flush_tlb                           2                       # Number of times complete TLB was flushed
system.cpu1.itb.flush_tlb_asid                      0                       # Number of times TLB was flushed by ASID
system.cpu1.itb.flush_tlb_mva                       0                       # Number of times TLB was flushed by MVA
system.cpu1.itb.flush_tlb_mva_asid                  0                       # Number of times TLB was flushed by MVA & ASID
system.cpu1.itb.hits                                0                       # DTB hits
system.cpu1.itb.inst_accesses                       1                       # ITB inst accesses
system.cpu1.itb.inst_hits                           0                       # ITB inst hits
system.cpu1.itb.inst_misses                         1                       # ITB inst misses
system.cpu1.itb.misses                              1                       # DTB misses
system.cpu1.itb.perms_faults                        0                       # Number of TLB faults due to permissions restrictions
system.cpu1.itb.prefetch_faults                     0                       # Number of TLB faults due to prefetch
system.cpu1.itb.read_accesses                       0                       # DTB read accesses
system.cpu1.itb.read_hits                           0                       # DTB read hits
system.cpu1.itb.read_misses                         0                       # DTB read misses
system.cpu1.itb.stage2_mmu.stage2_tlb.accesses            0                       # DTB accesses
system.cpu1.itb.stage2_mmu.stage2_tlb.align_faults            0                       # Number of TLB faults due to alignment restrictions
system.cpu1.itb.stage2_mmu.stage2_tlb.domain_faults            0                       # Number of TLB faults due to domain restrictions
system.cpu1.itb.stage2_mmu.stage2_tlb.flush_entries            0                       # Number of entries that have been flushed from TLB
system.cpu1.itb.stage2_mmu.stage2_tlb.flush_tlb            0                       # Number of times complete TLB was flushed
system.cpu1.itb.stage2_mmu.stage2_tlb.flush_tlb_asid            0                       # Number of times TLB was flushed by ASID
system.cpu1.itb.stage2_mmu.stage2_tlb.flush_tlb_mva            0                       # Number of times TLB was flushed by MVA
system.cpu1.itb.stage2_mmu.stage2_tlb.flush_tlb_mva_asid            0                       # Number of times TLB was flushed by MVA & ASID
system.cpu1.itb.stage2_mmu.stage2_tlb.hits            0                       # DTB hits
system.cpu1.itb.stage2_mmu.stage2_tlb.inst_accesses            0                       # ITB inst accesses
system.cpu1.itb.stage2_mmu.stage2_tlb.inst_hits            0                       # ITB inst hits
system.cpu1.itb.stage2_mmu.stage2_tlb.inst_misses            0                       # ITB inst misses
system.cpu1.itb.stage2_mmu.stage2_tlb.misses            0                       # DTB misses
system.cpu1.itb.stage2_mmu.stage2_tlb.perms_faults            0                       # Number of TLB faults due to permissions restrictions
system.cpu1.itb.stage2_mmu.stage2_tlb.prefetch_faults            0                       # Number of TLB faults due to prefetch
system.cpu1.itb.stage2_mmu.stage2_tlb.read_accesses            0                       # DTB read accesses
system.cpu1.itb.stage2_mmu.stage2_tlb.read_hits            0                       # DTB read hits
system.cpu1.itb.stage2_mmu.stage2_tlb.read_misses            0                       # DTB read misses
system.cpu1.itb.stage2_mmu.stage2_tlb.walker.walkRequestOrigin_Requested::Data            0                       # Table walker requests started/completed, data/inst
system.cpu1.itb.stage2_mmu.stage2_tlb.walker.walkRequestOrigin_Requested::Inst            0                       # Table walker requests started/completed, data/inst
system.cpu1.itb.stage2_mmu.stage2_tlb.walker.walkRequestOrigin_Requested::total            0                       # Table walker requests started/completed, data/inst
system.cpu1.itb.stage2_mmu.stage2_tlb.walker.walkRequestOrigin_Completed::Data            0                       # Table walker requests started/completed, data/inst
system.cpu1.itb.stage2_mmu.stage2_tlb.walker.walkRequestOrigin_Completed::Inst            0                       # Table walker requests started/completed, data/inst
system.cpu1.itb.stage2_mmu.stage2_tlb.walker.walkRequestOrigin_Completed::total            0                       # Table walker requests started/completed, data/inst
system.cpu1.itb.stage2_mmu.stage2_tlb.walker.walkRequestOrigin::total            0                       # Table walker requests started/completed, data/inst
system.cpu1.itb.stage2_mmu.stage2_tlb.walker.walks            0                       # Table walker walks requested
system.cpu1.itb.stage2_mmu.stage2_tlb.write_accesses            0                       # DTB write accesses
system.cpu1.itb.stage2_mmu.stage2_tlb.write_hits            0                       # DTB write hits
system.cpu1.itb.stage2_mmu.stage2_tlb.write_misses            0                       # DTB write misses
system.cpu1.itb.walker.walkPageSizes::4K            1    100.00%    100.00% # Table walker page sizes translated
system.cpu1.itb.walker.walkPageSizes::total            1                       # Table walker page sizes translated
system.cpu1.itb.walker.walkRequestOrigin_Requested::Data            0                       # Table walker requests started/completed, data/inst
system.cpu1.itb.walker.walkRequestOrigin_Requested::Inst            1                       # Table walker requests started/completed, data/inst
system.cpu1.itb.walker.walkRequestOrigin_Requested::total            1                       # Table walker requests started/completed, data/inst
system.cpu1.itb.walker.walkRequestOrigin_Completed::Data            0                       # Table walker requests started/completed, data/inst
system.cpu1.itb.walker.walkRequestOrigin_Completed::Inst            1                       # Table walker requests started/completed, data/inst
system.cpu1.itb.walker.walkRequestOrigin_Completed::total            1                       # Table walker requests started/completed, data/inst
system.cpu1.itb.walker.walkRequestOrigin::total            2                       # Table walker requests started/completed, data/inst
system.cpu1.itb.walker.walkWaitTime::samples            1                       # Table walker wait (enqueue to first request) latency
system.cpu1.itb.walker.walkWaitTime::0              1    100.00%    100.00% # Table walker wait (enqueue to first request) latency
system.cpu1.itb.walker.walkWaitTime::total            1                       # Table walker wait (enqueue to first request) latency
system.cpu1.itb.walker.walks                        1                       # Table walker walks requested
system.cpu1.itb.walker.walksLong                    1                       # Table walker walks initiated with long descriptors
system.cpu1.itb.walker.walksPending::samples  -1043953020                       # Table walker pending requests distribution
system.cpu1.itb.walker.walksPending::0    -1043953020    100.00%    100.00% # Table walker pending requests distribution
system.cpu1.itb.walker.walksPending::total  -1043953020                       # Table walker pending requests distribution
system.cpu1.itb.write_accesses                      0                       # DTB write accesses
system.cpu1.itb.write_hits                          0                       # DTB write hits
system.cpu1.itb.write_misses                        0                       # DTB write misses
system.cpu1.kern.inst.arm                           0                       # number of arm instructions executed
system.cpu1.kern.inst.quiesce                     148                       # number of quiesce instructions executed
system.cpu1.not_idle_fraction                1.000000                       # Percentage of non-idle cycles
system.cpu1.numCycles                      2102446070                       # number of cpu cycles simulated
system.cpu1.numWorkItemsCompleted                   0                       # number of work items this cpu completed
system.cpu1.numWorkItemsStarted                     0                       # number of work items this cpu started
system.cpu1.num_busy_cycles              2102446061.737562                       # Number of busy cycles
system.cpu1.num_conditional_control_insts            0                       # number of instructions that are conditional controls
system.cpu1.num_fp_alu_accesses                     0                       # Number of float alu accesses
system.cpu1.num_fp_insts                            0                       # number of float instructions
system.cpu1.num_fp_register_reads                   0                       # number of times the floating registers were read
system.cpu1.num_fp_register_writes                  0                       # number of times the floating registers were written
system.cpu1.num_func_calls                          1                       # number of times a function call or return occured
system.cpu1.num_idle_cycles                  8.262438                       # Number of idle cycles
system.cpu1.num_int_alu_accesses                    1                       # Number of integer alu accesses
system.cpu1.num_int_insts                           1                       # number of integer instructions
system.cpu1.num_int_register_reads                  1                       # number of times the integer registers were read
system.cpu1.num_int_register_writes                 0                       # number of times the integer registers were written
system.cpu1.num_load_insts                          0                       # Number of load instructions
system.cpu1.num_mem_refs                            0                       # number of memory refs
system.cpu1.num_store_insts                         0                       # Number of store instructions
system.cpu1.num_vec_alu_accesses                    0                       # Number of vector alu accesses
system.cpu1.num_vec_insts                           0                       # number of vector instructions
system.cpu1.num_vec_register_reads                  0                       # number of times the vector registers were read
system.cpu1.num_vec_register_writes                 0                       # number of times the vector registers were written
system.cpu1.op_class::No_OpClass                    0      0.00%      0.00% # Class of executed instruction
system.cpu1.op_class::IntAlu                        1    100.00%    100.00% # Class of executed instruction
system.cpu1.op_class::IntMult                       0      0.00%    100.00% # Class of executed instruction
system.cpu1.op_class::IntDiv                        0      0.00%    100.00% # Class of executed instruction
system.cpu1.op_class::FloatAdd                      0      0.00%    100.00% # Class of executed instruction
system.cpu1.op_class::FloatCmp                      0      0.00%    100.00% # Class of executed instruction
system.cpu1.op_class::FloatCvt                      0      0.00%    100.00% # Class of executed instruction
system.cpu1.op_class::FloatMult                     0      0.00%    100.00% # Class of executed instruction
system.cpu1.op_class::FloatMultAcc                  0      0.00%    100.00% # Class of executed instruction
system.cpu1.op_class::FloatDiv                      0      0.00%    100.00% # Class of executed instruction
system.cpu1.op_class::FloatMisc                     0      0.00%    100.00% # Class of executed instruction
system.cpu1.op_class::FloatSqrt                     0      0.00%    100.00% # Class of executed instruction
system.cpu1.op_class::SimdAdd                       0      0.00%    100.00% # Class of executed instruction
system.cpu1.op_class::SimdAddAcc                    0      0.00%    100.00% # Class of executed instruction
system.cpu1.op_class::SimdAlu                       0      0.00%    100.00% # Class of executed instruction
system.cpu1.op_class::SimdCmp                       0      0.00%    100.00% # Class of executed instruction
system.cpu1.op_class::SimdCvt                       0      0.00%    100.00% # Class of executed instruction
system.cpu1.op_class::SimdMisc                      0      0.00%    100.00% # Class of executed instruction
system.cpu1.op_class::SimdMult                      0      0.00%    100.00% # Class of executed instruction
system.cpu1.op_class::SimdMultAcc                   0      0.00%    100.00% # Class of executed instruction
system.cpu1.op_class::SimdShift                     0      0.00%    100.00% # Class of executed instruction
system.cpu1.op_class::SimdShiftAcc                  0      0.00%    100.00% # Class of executed instruction
system.cpu1.op_class::SimdDiv                       0      0.00%    100.00% # Class of executed instruction
system.cpu1.op_class::SimdSqrt                      0      0.00%    100.00% # Class of executed instruction
system.cpu1.op_class::SimdFloatAdd                  0      0.00%    100.00% # Class of executed instruction
system.cpu1.op_class::SimdFloatAlu                  0      0.00%    100.00% # Class of executed instruction
system.cpu1.op_class::SimdFloatCmp                  0      0.00%    100.00% # Class of executed instruction
system.cpu1.op_class::SimdFloatCvt                  0      0.00%    100.00% # Class of executed instruction
system.cpu1.op_class::SimdFloatDiv                  0      0.00%    100.00% # Class of executed instruction
system.cpu1.op_class::SimdFloatMisc                 0      0.00%    100.00% # Class of executed instruction
system.cpu1.op_class::SimdFloatMult                 0      0.00%    100.00% # Class of executed instruction
system.cpu1.op_class::SimdFloatMultAcc              0      0.00%    100.00% # Class of executed instruction
system.cpu1.op_class::SimdFloatSqrt                 0      0.00%    100.00% # Class of executed instruction
system.cpu1.op_class::SimdReduceAdd                 0      0.00%    100.00% # Class of executed instruction
system.cpu1.op_class::SimdReduceAlu                 0      0.00%    100.00% # Class of executed instruction
system.cpu1.op_class::SimdReduceCmp                 0      0.00%    100.00% # Class of executed instruction
system.cpu1.op_class::SimdFloatReduceAdd            0      0.00%    100.00% # Class of executed instruction
system.cpu1.op_class::SimdFloatReduceCmp            0      0.00%    100.00% # Class of executed instruction
system.cpu1.op_class::SimdAes                       0      0.00%    100.00% # Class of executed instruction
system.cpu1.op_class::SimdAesMix                    0      0.00%    100.00% # Class of executed instruction
system.cpu1.op_class::SimdSha1Hash                  0      0.00%    100.00% # Class of executed instruction
system.cpu1.op_class::SimdSha1Hash2                 0      0.00%    100.00% # Class of executed instruction
system.cpu1.op_class::SimdSha256Hash                0      0.00%    100.00% # Class of executed instruction
system.cpu1.op_class::SimdSha256Hash2               0      0.00%    100.00% # Class of executed instruction
system.cpu1.op_class::SimdShaSigma2                 0      0.00%    100.00% # Class of executed instruction
system.cpu1.op_class::SimdShaSigma3                 0      0.00%    100.00% # Class of executed instruction
system.cpu1.op_class::SimdPredAlu                   0      0.00%    100.00% # Class of executed instruction
system.cpu1.op_class::MemRead                       0      0.00%    100.00% # Class of executed instruction
system.cpu1.op_class::MemWrite                      0      0.00%    100.00% # Class of executed instruction
system.cpu1.op_class::FloatMemRead                  0      0.00%    100.00% # Class of executed instruction
system.cpu1.op_class::FloatMemWrite                 0      0.00%    100.00% # Class of executed instruction
system.cpu1.op_class::IprAccess                     0      0.00%    100.00% # Class of executed instruction
system.cpu1.op_class::InstPrefetch                  0      0.00%    100.00% # Class of executed instruction
system.cpu1.op_class::total                         1                       # Class of executed instruction
system.cpu2.Branches                                1                       # Number of branches fetched
system.cpu2.committedInsts                          1                       # Number of instructions committed
system.cpu2.committedOps                            1                       # Number of ops (including micro ops) committed
system.cpu2.dtb.accesses                            0                       # DTB accesses
system.cpu2.dtb.align_faults                        0                       # Number of TLB faults due to alignment restrictions
system.cpu2.dtb.domain_faults                       0                       # Number of TLB faults due to domain restrictions
system.cpu2.dtb.flush_entries                       0                       # Number of entries that have been flushed from TLB
system.cpu2.dtb.flush_tlb                           2                       # Number of times complete TLB was flushed
system.cpu2.dtb.flush_tlb_asid                      0                       # Number of times TLB was flushed by ASID
system.cpu2.dtb.flush_tlb_mva                       0                       # Number of times TLB was flushed by MVA
system.cpu2.dtb.flush_tlb_mva_asid                  0                       # Number of times TLB was flushed by MVA & ASID
system.cpu2.dtb.hits                                0                       # DTB hits
system.cpu2.dtb.inst_accesses                       0                       # ITB inst accesses
system.cpu2.dtb.inst_hits                           0                       # ITB inst hits
system.cpu2.dtb.inst_misses                         0                       # ITB inst misses
system.cpu2.dtb.misses                              0                       # DTB misses
system.cpu2.dtb.perms_faults                        0                       # Number of TLB faults due to permissions restrictions
system.cpu2.dtb.prefetch_faults                     0                       # Number of TLB faults due to prefetch
system.cpu2.dtb.read_accesses                       0                       # DTB read accesses
system.cpu2.dtb.read_hits                           0                       # DTB read hits
system.cpu2.dtb.read_misses                         0                       # DTB read misses
system.cpu2.dtb.stage2_mmu.stage2_tlb.accesses            0                       # DTB accesses
system.cpu2.dtb.stage2_mmu.stage2_tlb.align_faults            0                       # Number of TLB faults due to alignment restrictions
system.cpu2.dtb.stage2_mmu.stage2_tlb.domain_faults            0                       # Number of TLB faults due to domain restrictions
system.cpu2.dtb.stage2_mmu.stage2_tlb.flush_entries            0                       # Number of entries that have been flushed from TLB
system.cpu2.dtb.stage2_mmu.stage2_tlb.flush_tlb            0                       # Number of times complete TLB was flushed
system.cpu2.dtb.stage2_mmu.stage2_tlb.flush_tlb_asid            0                       # Number of times TLB was flushed by ASID
system.cpu2.dtb.stage2_mmu.stage2_tlb.flush_tlb_mva            0                       # Number of times TLB was flushed by MVA
system.cpu2.dtb.stage2_mmu.stage2_tlb.flush_tlb_mva_asid            0                       # Number of times TLB was flushed by MVA & ASID
system.cpu2.dtb.stage2_mmu.stage2_tlb.hits            0                       # DTB hits
system.cpu2.dtb.stage2_mmu.stage2_tlb.inst_accesses            0                       # ITB inst accesses
system.cpu2.dtb.stage2_mmu.stage2_tlb.inst_hits            0                       # ITB inst hits
system.cpu2.dtb.stage2_mmu.stage2_tlb.inst_misses            0                       # ITB inst misses
system.cpu2.dtb.stage2_mmu.stage2_tlb.misses            0                       # DTB misses
system.cpu2.dtb.stage2_mmu.stage2_tlb.perms_faults            0                       # Number of TLB faults due to permissions restrictions
system.cpu2.dtb.stage2_mmu.stage2_tlb.prefetch_faults            0                       # Number of TLB faults due to prefetch
system.cpu2.dtb.stage2_mmu.stage2_tlb.read_accesses            0                       # DTB read accesses
system.cpu2.dtb.stage2_mmu.stage2_tlb.read_hits            0                       # DTB read hits
system.cpu2.dtb.stage2_mmu.stage2_tlb.read_misses            0                       # DTB read misses
system.cpu2.dtb.stage2_mmu.stage2_tlb.walker.walkRequestOrigin_Requested::Data            0                       # Table walker requests started/completed, data/inst
system.cpu2.dtb.stage2_mmu.stage2_tlb.walker.walkRequestOrigin_Requested::Inst            0                       # Table walker requests started/completed, data/inst
system.cpu2.dtb.stage2_mmu.stage2_tlb.walker.walkRequestOrigin_Requested::total            0                       # Table walker requests started/completed, data/inst
system.cpu2.dtb.stage2_mmu.stage2_tlb.walker.walkRequestOrigin_Completed::Data            0                       # Table walker requests started/completed, data/inst
system.cpu2.dtb.stage2_mmu.stage2_tlb.walker.walkRequestOrigin_Completed::Inst            0                       # Table walker requests started/completed, data/inst
system.cpu2.dtb.stage2_mmu.stage2_tlb.walker.walkRequestOrigin_Completed::total            0                       # Table walker requests started/completed, data/inst
system.cpu2.dtb.stage2_mmu.stage2_tlb.walker.walkRequestOrigin::total            0                       # Table walker requests started/completed, data/inst
system.cpu2.dtb.stage2_mmu.stage2_tlb.walker.walks            0                       # Table walker walks requested
system.cpu2.dtb.stage2_mmu.stage2_tlb.write_accesses            0                       # DTB write accesses
system.cpu2.dtb.stage2_mmu.stage2_tlb.write_hits            0                       # DTB write hits
system.cpu2.dtb.stage2_mmu.stage2_tlb.write_misses            0                       # DTB write misses
system.cpu2.dtb.walker.walkRequestOrigin_Requested::Data            0                       # Table walker requests started/completed, data/inst
system.cpu2.dtb.walker.walkRequestOrigin_Requested::Inst            0                       # Table walker requests started/completed, data/inst
system.cpu2.dtb.walker.walkRequestOrigin_Requested::total            0                       # Table walker requests started/completed, data/inst
system.cpu2.dtb.walker.walkRequestOrigin_Completed::Data            0                       # Table walker requests started/completed, data/inst
system.cpu2.dtb.walker.walkRequestOrigin_Completed::Inst            0                       # Table walker requests started/completed, data/inst
system.cpu2.dtb.walker.walkRequestOrigin_Completed::total            0                       # Table walker requests started/completed, data/inst
system.cpu2.dtb.walker.walkRequestOrigin::total            0                       # Table walker requests started/completed, data/inst
system.cpu2.dtb.walker.walks                        0                       # Table walker walks requested
system.cpu2.dtb.write_accesses                      0                       # DTB write accesses
system.cpu2.dtb.write_hits                          0                       # DTB write hits
system.cpu2.dtb.write_misses                        0                       # DTB write misses
system.cpu2.idle_fraction                    0.000000                       # Percentage of idle cycles
system.cpu2.itb.accesses                            1                       # DTB accesses
system.cpu2.itb.align_faults                        0                       # Number of TLB faults due to alignment restrictions
system.cpu2.itb.domain_faults                       0                       # Number of TLB faults due to domain restrictions
system.cpu2.itb.flush_entries                       1                       # Number of entries that have been flushed from TLB
system.cpu2.itb.flush_tlb                           2                       # Number of times complete TLB was flushed
system.cpu2.itb.flush_tlb_asid                      0                       # Number of times TLB was flushed by ASID
system.cpu2.itb.flush_tlb_mva                       0                       # Number of times TLB was flushed by MVA
system.cpu2.itb.flush_tlb_mva_asid                  0                       # Number of times TLB was flushed by MVA & ASID
system.cpu2.itb.hits                                0                       # DTB hits
system.cpu2.itb.inst_accesses                       1                       # ITB inst accesses
system.cpu2.itb.inst_hits                           0                       # ITB inst hits
system.cpu2.itb.inst_misses                         1                       # ITB inst misses
system.cpu2.itb.misses                              1                       # DTB misses
system.cpu2.itb.perms_faults                        0                       # Number of TLB faults due to permissions restrictions
system.cpu2.itb.prefetch_faults                     0                       # Number of TLB faults due to prefetch
system.cpu2.itb.read_accesses                       0                       # DTB read accesses
system.cpu2.itb.read_hits                           0                       # DTB read hits
system.cpu2.itb.read_misses                         0                       # DTB read misses
system.cpu2.itb.stage2_mmu.stage2_tlb.accesses            0                       # DTB accesses
system.cpu2.itb.stage2_mmu.stage2_tlb.align_faults            0                       # Number of TLB faults due to alignment restrictions
system.cpu2.itb.stage2_mmu.stage2_tlb.domain_faults            0                       # Number of TLB faults due to domain restrictions
system.cpu2.itb.stage2_mmu.stage2_tlb.flush_entries            0                       # Number of entries that have been flushed from TLB
system.cpu2.itb.stage2_mmu.stage2_tlb.flush_tlb            0                       # Number of times complete TLB was flushed
system.cpu2.itb.stage2_mmu.stage2_tlb.flush_tlb_asid            0                       # Number of times TLB was flushed by ASID
system.cpu2.itb.stage2_mmu.stage2_tlb.flush_tlb_mva            0                       # Number of times TLB was flushed by MVA
system.cpu2.itb.stage2_mmu.stage2_tlb.flush_tlb_mva_asid            0                       # Number of times TLB was flushed by MVA & ASID
system.cpu2.itb.stage2_mmu.stage2_tlb.hits            0                       # DTB hits
system.cpu2.itb.stage2_mmu.stage2_tlb.inst_accesses            0                       # ITB inst accesses
system.cpu2.itb.stage2_mmu.stage2_tlb.inst_hits            0                       # ITB inst hits
system.cpu2.itb.stage2_mmu.stage2_tlb.inst_misses            0                       # ITB inst misses
system.cpu2.itb.stage2_mmu.stage2_tlb.misses            0                       # DTB misses
system.cpu2.itb.stage2_mmu.stage2_tlb.perms_faults            0                       # Number of TLB faults due to permissions restrictions
system.cpu2.itb.stage2_mmu.stage2_tlb.prefetch_faults            0                       # Number of TLB faults due to prefetch
system.cpu2.itb.stage2_mmu.stage2_tlb.read_accesses            0                       # DTB read accesses
system.cpu2.itb.stage2_mmu.stage2_tlb.read_hits            0                       # DTB read hits
system.cpu2.itb.stage2_mmu.stage2_tlb.read_misses            0                       # DTB read misses
system.cpu2.itb.stage2_mmu.stage2_tlb.walker.walkRequestOrigin_Requested::Data            0                       # Table walker requests started/completed, data/inst
system.cpu2.itb.stage2_mmu.stage2_tlb.walker.walkRequestOrigin_Requested::Inst            0                       # Table walker requests started/completed, data/inst
system.cpu2.itb.stage2_mmu.stage2_tlb.walker.walkRequestOrigin_Requested::total            0                       # Table walker requests started/completed, data/inst
system.cpu2.itb.stage2_mmu.stage2_tlb.walker.walkRequestOrigin_Completed::Data            0                       # Table walker requests started/completed, data/inst
system.cpu2.itb.stage2_mmu.stage2_tlb.walker.walkRequestOrigin_Completed::Inst            0                       # Table walker requests started/completed, data/inst
system.cpu2.itb.stage2_mmu.stage2_tlb.walker.walkRequestOrigin_Completed::total            0                       # Table walker requests started/completed, data/inst
system.cpu2.itb.stage2_mmu.stage2_tlb.walker.walkRequestOrigin::total            0                       # Table walker requests started/completed, data/inst
system.cpu2.itb.stage2_mmu.stage2_tlb.walker.walks            0                       # Table walker walks requested
system.cpu2.itb.stage2_mmu.stage2_tlb.write_accesses            0                       # DTB write accesses
system.cpu2.itb.stage2_mmu.stage2_tlb.write_hits            0                       # DTB write hits
system.cpu2.itb.stage2_mmu.stage2_tlb.write_misses            0                       # DTB write misses
system.cpu2.itb.walker.walkPageSizes::4K            1    100.00%    100.00% # Table walker page sizes translated
system.cpu2.itb.walker.walkPageSizes::total            1                       # Table walker page sizes translated
system.cpu2.itb.walker.walkRequestOrigin_Requested::Data            0                       # Table walker requests started/completed, data/inst
system.cpu2.itb.walker.walkRequestOrigin_Requested::Inst            1                       # Table walker requests started/completed, data/inst
system.cpu2.itb.walker.walkRequestOrigin_Requested::total            1                       # Table walker requests started/completed, data/inst
system.cpu2.itb.walker.walkRequestOrigin_Completed::Data            0                       # Table walker requests started/completed, data/inst
system.cpu2.itb.walker.walkRequestOrigin_Completed::Inst            1                       # Table walker requests started/completed, data/inst
system.cpu2.itb.walker.walkRequestOrigin_Completed::total            1                       # Table walker requests started/completed, data/inst
system.cpu2.itb.walker.walkRequestOrigin::total            2                       # Table walker requests started/completed, data/inst
system.cpu2.itb.walker.walkWaitTime::samples            1                       # Table walker wait (enqueue to first request) latency
system.cpu2.itb.walker.walkWaitTime::0              1    100.00%    100.00% # Table walker wait (enqueue to first request) latency
system.cpu2.itb.walker.walkWaitTime::total            1                       # Table walker wait (enqueue to first request) latency
system.cpu2.itb.walker.walks                        1                       # Table walker walks requested
system.cpu2.itb.walker.walksLong                    1                       # Table walker walks initiated with long descriptors
system.cpu2.itb.walker.walksPending::samples  -1043953020                       # Table walker pending requests distribution
system.cpu2.itb.walker.walksPending::0    -1043953020    100.00%    100.00% # Table walker pending requests distribution
system.cpu2.itb.walker.walksPending::total  -1043953020                       # Table walker pending requests distribution
system.cpu2.itb.write_accesses                      0                       # DTB write accesses
system.cpu2.itb.write_hits                          0                       # DTB write hits
system.cpu2.itb.write_misses                        0                       # DTB write misses
system.cpu2.kern.inst.arm                           0                       # number of arm instructions executed
system.cpu2.kern.inst.quiesce                     250                       # number of quiesce instructions executed
system.cpu2.not_idle_fraction                1.000000                       # Percentage of non-idle cycles
system.cpu2.numCycles                      2102446070                       # number of cpu cycles simulated
system.cpu2.numWorkItemsCompleted                   0                       # number of work items this cpu completed
system.cpu2.numWorkItemsStarted                     0                       # number of work items this cpu started
system.cpu2.num_busy_cycles              2102446061.737562                       # Number of busy cycles
system.cpu2.num_conditional_control_insts            0                       # number of instructions that are conditional controls
system.cpu2.num_fp_alu_accesses                     0                       # Number of float alu accesses
system.cpu2.num_fp_insts                            0                       # number of float instructions
system.cpu2.num_fp_register_reads                   0                       # number of times the floating registers were read
system.cpu2.num_fp_register_writes                  0                       # number of times the floating registers were written
system.cpu2.num_func_calls                          1                       # number of times a function call or return occured
system.cpu2.num_idle_cycles                  8.262438                       # Number of idle cycles
system.cpu2.num_int_alu_accesses                    1                       # Number of integer alu accesses
system.cpu2.num_int_insts                           1                       # number of integer instructions
system.cpu2.num_int_register_reads                  1                       # number of times the integer registers were read
system.cpu2.num_int_register_writes                 0                       # number of times the integer registers were written
system.cpu2.num_load_insts                          0                       # Number of load instructions
system.cpu2.num_mem_refs                            0                       # number of memory refs
system.cpu2.num_store_insts                         0                       # Number of store instructions
system.cpu2.num_vec_alu_accesses                    0                       # Number of vector alu accesses
system.cpu2.num_vec_insts                           0                       # number of vector instructions
system.cpu2.num_vec_register_reads                  0                       # number of times the vector registers were read
system.cpu2.num_vec_register_writes                 0                       # number of times the vector registers were written
system.cpu2.op_class::No_OpClass                    0      0.00%      0.00% # Class of executed instruction
system.cpu2.op_class::IntAlu                        1    100.00%    100.00% # Class of executed instruction
system.cpu2.op_class::IntMult                       0      0.00%    100.00% # Class of executed instruction
system.cpu2.op_class::IntDiv                        0      0.00%    100.00% # Class of executed instruction
system.cpu2.op_class::FloatAdd                      0      0.00%    100.00% # Class of executed instruction
system.cpu2.op_class::FloatCmp                      0      0.00%    100.00% # Class of executed instruction
system.cpu2.op_class::FloatCvt                      0      0.00%    100.00% # Class of executed instruction
system.cpu2.op_class::FloatMult                     0      0.00%    100.00% # Class of executed instruction
system.cpu2.op_class::FloatMultAcc                  0      0.00%    100.00% # Class of executed instruction
system.cpu2.op_class::FloatDiv                      0      0.00%    100.00% # Class of executed instruction
system.cpu2.op_class::FloatMisc                     0      0.00%    100.00% # Class of executed instruction
system.cpu2.op_class::FloatSqrt                     0      0.00%    100.00% # Class of executed instruction
system.cpu2.op_class::SimdAdd                       0      0.00%    100.00% # Class of executed instruction
system.cpu2.op_class::SimdAddAcc                    0      0.00%    100.00% # Class of executed instruction
system.cpu2.op_class::SimdAlu                       0      0.00%    100.00% # Class of executed instruction
system.cpu2.op_class::SimdCmp                       0      0.00%    100.00% # Class of executed instruction
system.cpu2.op_class::SimdCvt                       0      0.00%    100.00% # Class of executed instruction
system.cpu2.op_class::SimdMisc                      0      0.00%    100.00% # Class of executed instruction
system.cpu2.op_class::SimdMult                      0      0.00%    100.00% # Class of executed instruction
system.cpu2.op_class::SimdMultAcc                   0      0.00%    100.00% # Class of executed instruction
system.cpu2.op_class::SimdShift                     0      0.00%    100.00% # Class of executed instruction
system.cpu2.op_class::SimdShiftAcc                  0      0.00%    100.00% # Class of executed instruction
system.cpu2.op_class::SimdDiv                       0      0.00%    100.00% # Class of executed instruction
system.cpu2.op_class::SimdSqrt                      0      0.00%    100.00% # Class of executed instruction
system.cpu2.op_class::SimdFloatAdd                  0      0.00%    100.00% # Class of executed instruction
system.cpu2.op_class::SimdFloatAlu                  0      0.00%    100.00% # Class of executed instruction
system.cpu2.op_class::SimdFloatCmp                  0      0.00%    100.00% # Class of executed instruction
system.cpu2.op_class::SimdFloatCvt                  0      0.00%    100.00% # Class of executed instruction
system.cpu2.op_class::SimdFloatDiv                  0      0.00%    100.00% # Class of executed instruction
system.cpu2.op_class::SimdFloatMisc                 0      0.00%    100.00% # Class of executed instruction
system.cpu2.op_class::SimdFloatMult                 0      0.00%    100.00% # Class of executed instruction
system.cpu2.op_class::SimdFloatMultAcc              0      0.00%    100.00% # Class of executed instruction
system.cpu2.op_class::SimdFloatSqrt                 0      0.00%    100.00% # Class of executed instruction
system.cpu2.op_class::SimdReduceAdd                 0      0.00%    100.00% # Class of executed instruction
system.cpu2.op_class::SimdReduceAlu                 0      0.00%    100.00% # Class of executed instruction
system.cpu2.op_class::SimdReduceCmp                 0      0.00%    100.00% # Class of executed instruction
system.cpu2.op_class::SimdFloatReduceAdd            0      0.00%    100.00% # Class of executed instruction
system.cpu2.op_class::SimdFloatReduceCmp            0      0.00%    100.00% # Class of executed instruction
system.cpu2.op_class::SimdAes                       0      0.00%    100.00% # Class of executed instruction
system.cpu2.op_class::SimdAesMix                    0      0.00%    100.00% # Class of executed instruction
system.cpu2.op_class::SimdSha1Hash                  0      0.00%    100.00% # Class of executed instruction
system.cpu2.op_class::SimdSha1Hash2                 0      0.00%    100.00% # Class of executed instruction
system.cpu2.op_class::SimdSha256Hash                0      0.00%    100.00% # Class of executed instruction
system.cpu2.op_class::SimdSha256Hash2               0      0.00%    100.00% # Class of executed instruction
system.cpu2.op_class::SimdShaSigma2                 0      0.00%    100.00% # Class of executed instruction
system.cpu2.op_class::SimdShaSigma3                 0      0.00%    100.00% # Class of executed instruction
system.cpu2.op_class::SimdPredAlu                   0      0.00%    100.00% # Class of executed instruction
system.cpu2.op_class::MemRead                       0      0.00%    100.00% # Class of executed instruction
system.cpu2.op_class::MemWrite                      0      0.00%    100.00% # Class of executed instruction
system.cpu2.op_class::FloatMemRead                  0      0.00%    100.00% # Class of executed instruction
system.cpu2.op_class::FloatMemWrite                 0      0.00%    100.00% # Class of executed instruction
system.cpu2.op_class::IprAccess                     0      0.00%    100.00% # Class of executed instruction
system.cpu2.op_class::InstPrefetch                  0      0.00%    100.00% # Class of executed instruction
system.cpu2.op_class::total                         1                       # Class of executed instruction
system.membus.snoop_filter.hit_multi_requests         2348                       # Number of requests hitting in the snoop filter with multiple (>1) holders of the requested data.
system.membus.snoop_filter.hit_multi_snoops            0                       # Number of snoops hitting in the snoop filter with multiple (>1) holders of the requested data.
system.membus.snoop_filter.hit_single_requests        81971                       # Number of requests hitting in the snoop filter with a single holder of the requested data.
system.membus.snoop_filter.hit_single_snoops            0                       # Number of snoops hitting in the snoop filter with a single holder of the requested data.
system.membus.snoop_filter.tot_requests        183913                       # Total number of requests made to the snoop filter.
system.membus.snoop_filter.tot_snoops               0                       # Total number of snoops made to the snoop filter.
system.pci_ide.disks0.dma_read_bytes                0                       # Number of bytes transfered via DMA reads (not PRD).
system.pci_ide.disks0.dma_read_full_pages            0                       # Number of full page size DMA reads (not PRD).
system.pci_ide.disks0.dma_read_txs                  0                       # Number of DMA read transactions (not PRD).
system.pci_ide.disks0.dma_write_bytes          815104                       # Number of bytes transfered via DMA writes.
system.pci_ide.disks0.dma_write_full_pages          199                       # Number of full page size DMA writes.
system.pci_ide.disks0.dma_write_txs               199                       # Number of DMA write transactions.
system.pci_ide.disks1.dma_read_bytes             4096                       # Number of bytes transfered via DMA reads (not PRD).
system.pci_ide.disks1.dma_read_full_pages            1                       # Number of full page size DMA reads (not PRD).
system.pci_ide.disks1.dma_read_txs                  1                       # Number of DMA read transactions (not PRD).
system.pci_ide.disks1.dma_write_bytes          341504                       # Number of bytes transfered via DMA writes.
system.pci_ide.disks1.dma_write_full_pages           83                       # Number of full page size DMA writes.
system.pci_ide.disks1.dma_write_txs                85                       # Number of DMA write transactions.
system.switch_cpus0.Branches                  1243170                       # Number of branches fetched
system.switch_cpus0.committedInsts            5031814                       # Number of instructions committed
system.switch_cpus0.committedOps              6072817                       # Number of ops (including micro ops) committed
system.switch_cpus0.dtb.accesses              1998484                       # DTB accesses
system.switch_cpus0.dtb.align_faults                0                       # Number of TLB faults due to alignment restrictions
system.switch_cpus0.dtb.domain_faults               0                       # Number of TLB faults due to domain restrictions
system.switch_cpus0.dtb.flush_entries             168                       # Number of entries that have been flushed from TLB
system.switch_cpus0.dtb.flush_tlb                   0                       # Number of times complete TLB was flushed
system.switch_cpus0.dtb.flush_tlb_asid             16                       # Number of times TLB was flushed by ASID
system.switch_cpus0.dtb.flush_tlb_mva               0                       # Number of times TLB was flushed by MVA
system.switch_cpus0.dtb.flush_tlb_mva_asid          598                       # Number of times TLB was flushed by MVA & ASID
system.switch_cpus0.dtb.hits                  1997744                       # DTB hits
system.switch_cpus0.dtb.inst_accesses               0                       # ITB inst accesses
system.switch_cpus0.dtb.inst_hits                   0                       # ITB inst hits
[...]
system.mem_ctrls.wrPerTurnAround::80-83             7      0.43%     99.26% # Writes before turning the bus around for reads
system.mem_ctrls.wrPerTurnAround::84-87             1      0.06%     99.32% # Writes before turning the bus around for reads
system.mem_ctrls.wrPerTurnAround::96-99             1      0.06%     99.38% # Writes before turning the bus around for reads
system.mem_ctrls.wrPerTurnAround::108-111            1      0.06%     99.45% # Writes before turning the bus around for reads
system.mem_ctrls.wrPerTurnAround::132-135            1      0.06%     99.51% # Writes before turning the bus around for reads
system.mem_ctrls.wrPerTurnAround::140-143            1      0.06%     99.57% # Writes before turning the bus around for reads
system.mem_ctrls.wrPerTurnAround::160-163            5      0.31%     99.88% # Writes before turning the bus around for reads
system.mem_ctrls.wrPerTurnAround::172-175            1      0.06%     99.94% # Writes before turning the bus around for reads
system.mem_ctrls.wrPerTurnAround::188-191            1      0.06%    100.00% # Writes before turning the bus around for reads
system.mem_ctrls.wrPerTurnAround::total          1626                       # Writes before turning the bus around for reads
system.mem_ctrls.bytesReadDRAM                4424064                       # Total number of bytes read from DRAM
system.mem_ctrls.bytesReadWrQ                   22656                       # Total number of bytes read from write queue
system.mem_ctrls.bytesWritten                 2681984                       # Total number of bytes written to DRAM
system.mem_ctrls.bytesReadSys                 4446720                       # Total read bytes from the system interface side
system.mem_ctrls.bytesWrittenSys              2683520                       # Total written bytes from the system interface side
system.mem_ctrls.avgRdBW                         1.74                       # Average DRAM read bandwidth in MiByte/s
system.mem_ctrls.avgWrBW                         1.05                       # Average achieved write bandwidth in MiByte/s
system.mem_ctrls.avgRdBWSys                      1.75                       # Average system read bandwidth in MiByte/s
system.mem_ctrls.avgWrBWSys                      1.05                       # Average system write bandwidth in MiByte/s
system.mem_ctrls.peakBW                      12800.00                       # Theoretical peak bandwidth in MiByte/s
system.mem_ctrls.busUtil                         0.02                       # Data bus utilization in percentage
system.mem_ctrls.busUtilRead                     0.01                       # Data bus utilization in percentage for reads
system.mem_ctrls.busUtilWrite                    0.01                       # Data bus utilization in percentage for writes
system.mem_ctrls.totGap                  2544570736000                       # Total gap between requests
system.mem_ctrls.avgGap                   22839697.84                       # Average gap between requests
system.mem_ctrls.masterReadBytes::.switch_cpus0.inst       173824                       # Per-master bytes read from memory
system.mem_ctrls.masterReadBytes::.switch_cpus0.data      2207872                       # Per-master bytes read from memory
system.mem_ctrls.masterReadBytes::.switch_cpus0.dtb.walker         2752                       # Per-master bytes read from memory
system.mem_ctrls.masterReadBytes::.switch_cpus0.itb.walker         2176                       # Per-master bytes read from memory
system.mem_ctrls.masterReadBytes::.switch_cpus1.inst       378112                       # Per-master bytes read from memory
system.mem_ctrls.masterReadBytes::.switch_cpus1.data       514752                       # Per-master bytes read from memory
system.mem_ctrls.masterReadBytes::.switch_cpus1.dtb.walker         2560                       # Per-master bytes read from memory
system.mem_ctrls.masterReadBytes::.switch_cpus1.itb.walker         1856                       # Per-master bytes read from memory
system.mem_ctrls.masterReadBytes::.switch_cpus2.inst       427648                       # Per-master bytes read from memory
system.mem_ctrls.masterReadBytes::.switch_cpus2.data       707648                       # Per-master bytes read from memory
system.mem_ctrls.masterReadBytes::.switch_cpus2.dtb.walker         3136                       # Per-master bytes read from memory
system.mem_ctrls.masterReadBytes::.switch_cpus2.itb.walker         1728                       # Per-master bytes read from memory
system.mem_ctrls.masterWriteBytes::.writebacks      2681984                       # Per-master bytes write to memory
system.mem_ctrls.masterReadRate::.switch_cpus0.inst 68311.379801507821                       # Per-master bytes read from memory rate (Bytes/sec)
system.mem_ctrls.masterReadRate::.switch_cpus0.data 867675.250512671890                       # Per-master bytes read from memory rate (Bytes/sec)
system.mem_ctrls.masterReadRate::.switch_cpus0.dtb.walker 1081.513008639483                       # Per-master bytes read from memory rate (Bytes/sec)
system.mem_ctrls.masterReadRate::.switch_cpus0.itb.walker 855.149820784708                       # Per-master bytes read from memory rate (Bytes/sec)
system.mem_ctrls.masterReadRate::.switch_cpus1.inst 148594.857094001549                       # Per-master bytes read from memory rate (Bytes/sec)
system.mem_ctrls.masterReadRate::.switch_cpus1.data 202293.235546217766                       # Per-master bytes read from memory rate (Bytes/sec)
system.mem_ctrls.masterReadRate::.switch_cpus1.dtb.walker 1006.058612687891                       # Per-master bytes read from memory rate (Bytes/sec)
system.mem_ctrls.masterReadRate::.switch_cpus1.itb.walker 729.392494198721                       # Per-master bytes read from memory rate (Bytes/sec)
system.mem_ctrls.masterReadRate::.switch_cpus2.inst 168062.091249512247                       # Per-master bytes read from memory rate (Bytes/sec)
system.mem_ctrls.masterReadRate::.switch_cpus2.data 278099.752012250363                       # Per-master bytes read from memory rate (Bytes/sec)
system.mem_ctrls.masterReadRate::.switch_cpus2.dtb.walker 1232.421800542667                       # Per-master bytes read from memory rate (Bytes/sec)
system.mem_ctrls.masterReadRate::.switch_cpus2.itb.walker 679.089563564327                       # Per-master bytes read from memory rate (Bytes/sec)
system.mem_ctrls.masterWriteRate::.writebacks 1053997.305582469329                       # Per-master bytes write to memory rate (Bytes/sec)
system.mem_ctrls.masterReadAccesses::.switch_cpus0.inst         2716                       # Per-master read serviced memory accesses
system.mem_ctrls.masterReadAccesses::.switch_cpus0.data        34842                       # Per-master read serviced memory accesses
system.mem_ctrls.masterReadAccesses::.switch_cpus0.dtb.walker           43                       # Per-master read serviced memory accesses
system.mem_ctrls.masterReadAccesses::.switch_cpus0.itb.walker           34                       # Per-master read serviced memory accesses
system.mem_ctrls.masterReadAccesses::.switch_cpus1.inst         5908                       # Per-master read serviced memory accesses
system.mem_ctrls.masterReadAccesses::.switch_cpus1.data         8048                       # Per-master read serviced memory accesses
system.mem_ctrls.masterReadAccesses::.switch_cpus1.dtb.walker           40                       # Per-master read serviced memory accesses
system.mem_ctrls.masterReadAccesses::.switch_cpus1.itb.walker           29                       # Per-master read serviced memory accesses
system.mem_ctrls.masterReadAccesses::.switch_cpus2.inst         6682                       # Per-master read serviced memory accesses
system.mem_ctrls.masterReadAccesses::.switch_cpus2.data        11062                       # Per-master read serviced memory accesses
system.mem_ctrls.masterReadAccesses::.switch_cpus2.dtb.walker           49                       # Per-master read serviced memory accesses
system.mem_ctrls.masterReadAccesses::.switch_cpus2.itb.walker           27                       # Per-master read serviced memory accesses
system.mem_ctrls.masterWriteAccesses::.writebacks        41930                       # Per-master write serviced memory accesses
system.mem_ctrls.masterReadTotalLat::.switch_cpus0.inst     99746250                       # Per-master read total memory access latency
system.mem_ctrls.masterReadTotalLat::.switch_cpus0.data   1325442000                       # Per-master read total memory access latency
system.mem_ctrls.masterReadTotalLat::.switch_cpus0.dtb.walker      1608750                       # Per-master read total memory access latency
system.mem_ctrls.masterReadTotalLat::.switch_cpus0.itb.walker      1211500                       # Per-master read total memory access latency
system.mem_ctrls.masterReadTotalLat::.switch_cpus1.inst    212768250                       # Per-master read total memory access latency
system.mem_ctrls.masterReadTotalLat::.switch_cpus1.data    379673000                       # Per-master read total memory access latency
system.mem_ctrls.masterReadTotalLat::.switch_cpus1.dtb.walker      1898500                       # Per-master read total memory access latency
system.mem_ctrls.masterReadTotalLat::.switch_cpus1.itb.walker      1334000                       # Per-master read total memory access latency
system.mem_ctrls.masterReadTotalLat::.switch_cpus2.inst    239780000                       # Per-master read total memory access latency
system.mem_ctrls.masterReadTotalLat::.switch_cpus2.data    557153250                       # Per-master read total memory access latency
system.mem_ctrls.masterReadTotalLat::.switch_cpus2.dtb.walker      1829000                       # Per-master read total memory access latency
system.mem_ctrls.masterReadTotalLat::.switch_cpus2.itb.walker       971000                       # Per-master read total memory access latency
system.mem_ctrls.masterWriteTotalLat::.writebacks 59525905342250                       # Per-master write total memory access latency
system.mem_ctrls.masterReadAvgLat::.switch_cpus0.inst     36725.42                       # Per-master read average memory access latency
system.mem_ctrls.masterReadAvgLat::.switch_cpus0.data     38041.50                       # Per-master read average memory access latency
system.mem_ctrls.masterReadAvgLat::.switch_cpus0.dtb.walker     37412.79                       # Per-master read average memory access latency
system.mem_ctrls.masterReadAvgLat::.switch_cpus0.itb.walker     35632.35                       # Per-master read average memory access latency
system.mem_ctrls.masterReadAvgLat::.switch_cpus1.inst     36013.58                       # Per-master read average memory access latency
system.mem_ctrls.masterReadAvgLat::.switch_cpus1.data     47176.07                       # Per-master read average memory access latency
system.mem_ctrls.masterReadAvgLat::.switch_cpus1.dtb.walker     47462.50                       # Per-master read average memory access latency
system.mem_ctrls.masterReadAvgLat::.switch_cpus1.itb.walker     46000.00                       # Per-master read average memory access latency
system.mem_ctrls.masterReadAvgLat::.switch_cpus2.inst     35884.47                       # Per-master read average memory access latency
system.mem_ctrls.masterReadAvgLat::.switch_cpus2.data     50366.41                       # Per-master read average memory access latency
system.mem_ctrls.masterReadAvgLat::.switch_cpus2.dtb.walker     37326.53                       # Per-master read average memory access latency
system.mem_ctrls.masterReadAvgLat::.switch_cpus2.itb.walker     35962.96                       # Per-master read average memory access latency
system.mem_ctrls.masterWriteAvgLat::.writebacks 1419649543.10                       # Per-master write average memory access latency
system.mem_ctrls.pageHitRate                    32.13                       # Row buffer hit rate, read and write combined
system.mem_ctrls.rank1.actEnergy            267464400                       # Energy for activate commands per rank (pJ)
system.mem_ctrls.rank1.preEnergy            142156905                       # Energy for precharge commands per rank (pJ)
system.mem_ctrls.rank1.readEnergy           245223300                       # Energy for read commands per rank (pJ)
system.mem_ctrls.rank1.writeEnergy          110491740                       # Energy for write commands per rank (pJ)
system.mem_ctrls.rank1.refreshEnergy     200866810560.000031                       # Energy for refresh commands per rank (pJ)
system.mem_ctrls.rank1.actBackEnergy      95686072710                       # Energy for active background per rank (pJ)
system.mem_ctrls.rank1.preBackEnergy     896539269120                       # Energy for precharge background per rank (pJ)
system.mem_ctrls.rank1.actPowerDownEnergy            0                       # Energy for active power-down per rank (pJ)
system.mem_ctrls.rank1.prePowerDownEnergy            0                       # Energy for precharge power-down per rank (pJ)
system.mem_ctrls.rank1.selfRefreshEnergy            0                       # Energy for self refresh per rank (pJ)
system.mem_ctrls.rank1.totalEnergy       1193857488735                       # Total energy per rank (pJ)
system.mem_ctrls.rank1.averagePower        469.176019                       # Core power per rank (mW)
system.mem_ctrls.rank1.totalIdleTime                0                       # Total Idle time Per DRAM Rank
system.mem_ctrls.rank1.memoryStateTime::IDLE 2329825638997                       # Time in different power states
system.mem_ctrls.rank1.memoryStateTime::REF  84969040000                       # Time in different power states
system.mem_ctrls.rank1.memoryStateTime::SREF            0                       # Time in different power states
system.mem_ctrls.rank1.memoryStateTime::PRE_PDN            0                       # Time in different power states
system.mem_ctrls.rank1.memoryStateTime::ACT 129788666003                       # Time in different power states
system.mem_ctrls.rank1.memoryStateTime::ACT_PDN            0                       # Time in different power states
system.mem_ctrls.rank0.actEnergy            270563160                       # Energy for activate commands per rank (pJ)
system.mem_ctrls.rank0.preEnergy            143807730                       # Energy for precharge commands per rank (pJ)
system.mem_ctrls.rank0.readEnergy           248336340                       # Energy for read commands per rank (pJ)
system.mem_ctrls.rank0.writeEnergy          108257580                       # Energy for write commands per rank (pJ)
system.mem_ctrls.rank0.refreshEnergy     200866810560.000031                       # Energy for refresh commands per rank (pJ)
system.mem_ctrls.rank0.actBackEnergy      97338140190                       # Energy for active background per rank (pJ)
system.mem_ctrls.rank0.preBackEnergy     895148054400                       # Energy for precharge background per rank (pJ)
system.mem_ctrls.rank0.actPowerDownEnergy            0                       # Energy for active power-down per rank (pJ)
system.mem_ctrls.rank0.prePowerDownEnergy            0                       # Energy for precharge power-down per rank (pJ)
system.mem_ctrls.rank0.selfRefreshEnergy            0                       # Energy for self refresh per rank (pJ)
system.mem_ctrls.rank0.totalEnergy       1194123969960                       # Total energy per rank (pJ)
system.mem_ctrls.rank0.averagePower        469.280744                       # Core power per rank (mW)
system.mem_ctrls.rank0.totalIdleTime                0                       # Total Idle time Per DRAM Rank
system.mem_ctrls.rank0.memoryStateTime::IDLE 2326201230746                       # Time in different power states
system.mem_ctrls.rank0.memoryStateTime::REF  84969040000                       # Time in different power states
system.mem_ctrls.rank0.memoryStateTime::SREF            0                       # Time in different power states
system.mem_ctrls.rank0.memoryStateTime::PRE_PDN            0                       # Time in different power states
system.mem_ctrls.rank0.memoryStateTime::ACT 133413074254                       # Time in different power states
system.mem_ctrls.rank0.memoryStateTime::ACT_PDN            0                       # Time in different power states
system.iobus.pwrStateResidencyTicks::UNDEFINED 3595806379500                       # Cumulative time (in ticks) in various power states
system.iobus.trans_dist::ReadReq                 2065                       # Transaction distribution
system.iobus.trans_dist::ReadResp                2065                       # Transaction distribution
system.iobus.trans_dist::WriteReq               19906                       # Transaction distribution
system.iobus.trans_dist::WriteResp              19906                       # Transaction distribution
system.iobus.pkt_count_system.bridge.master::system.realview.uart.pio          344                       # Packet count per connected master and slave (bytes)
system.iobus.pkt_count_system.bridge.master::system.pci_ide.pio         6968                       # Packet count per connected master and slave (bytes)
system.iobus.pkt_count_system.bridge.master::total         7312                       # Packet count per connected master and slave (bytes)
system.iobus.pkt_count_system.pci_ide.dma::system.iocache.cpu_side        36630                       # Packet count per connected master and slave (bytes)
system.iobus.pkt_count_system.pci_ide.dma::total        36630                       # Packet count per connected master and slave (bytes)
system.iobus.pkt_count::total                   43942                       # Packet count per connected master and slave (bytes)
system.iobus.pkt_size_system.bridge.master::system.realview.uart.pio          344                       # Cumulative packet size per connected master and slave (bytes)
system.iobus.pkt_size_system.bridge.master::system.pci_ide.pio         3886                       # Cumulative packet size per connected master and slave (bytes)
system.iobus.pkt_size_system.bridge.master::total         4230                       # Cumulative packet size per connected master and slave (bytes)
system.iobus.pkt_size_system.pci_ide.dma::system.iocache.cpu_side      1162136                       # Cumulative packet size per connected master and slave (bytes)
system.iobus.pkt_size_system.pci_ide.dma::total      1162136                       # Cumulative packet size per connected master and slave (bytes)
system.iobus.pkt_size::total                  1166366                       # Cumulative packet size per connected master and slave (bytes)
system.iobus.reqLayer1.occupancy               308000                       # Layer occupancy (ticks)
system.iobus.reqLayer1.utilization                0.0                       # Layer utilization (%)
system.iobus.respLayer1.occupancy            18750000                       # Layer occupancy (ticks)
system.iobus.respLayer1.utilization               0.0                       # Layer utilization (%)
system.iobus.respLayer0.occupancy             5478000                       # Layer occupancy (ticks)
system.iobus.respLayer0.utilization               0.0                       # Layer utilization (%)
system.iobus.reqLayer10.occupancy             6169000                       # Layer occupancy (ticks)
system.iobus.reqLayer10.utilization               0.0                       # Layer utilization (%)
system.iobus.reqLayer11.occupancy            94417313                       # Layer occupancy (ticks)
system.iobus.reqLayer11.utilization               0.0                       # Layer utilization (%)

---------- End Simulation Statistics   ----------
