
---------- Begin Simulation Statistics ----------
final_tick                               22856332518500                       # Number of ticks from beginning of simulation (restored from checkpoints and never reset)
host_inst_rate                                 525112                       # Simulator instruction rate (inst/s)
host_mem_usage                               17265692                       # Number of bytes of host memory used
host_op_rate                                   561416                       # Simulator op (including micro ops) rate (op/s)
host_seconds                                   730.50                       # Real time elapsed on the host
host_tick_rate                            29849536667                       # Simulator tick rate (ticks/s)
sim_freq                                 1000000000000                       # Frequency of simulated ticks
sim_insts                                   383594799                       # Number of instructions simulated
sim_ops                                     410114692                       # Number of ops (including micro ops) simulated
sim_seconds                                 21.805109                       # Number of seconds simulated
sim_ticks                                21805109494000                       # Number of ticks simulated
system.cpu0.Branches                                4                       # Number of branches fetched
system.cpu0.committedInsts                         16                       # Number of instructions committed
system.cpu0.committedOps                           20                       # Number of ops (including micro ops) committed
system.cpu0.dtb.accesses                            6                       # DTB accesses
system.cpu0.dtb.align_faults                        0                       # Number of TLB faults due to alignment restrictions
system.cpu0.dtb.domain_faults                       0                       # Number of TLB faults due to domain restrictions
system.cpu0.dtb.flush_entries                       2                       # Number of entries that have been flushed from TLB
system.cpu0.dtb.flush_tlb                           2                       # Number of times complete TLB was flushed
system.cpu0.dtb.flush_tlb_asid                      0                       # Number of times TLB was flushed by ASID
system.cpu0.dtb.flush_tlb_mva                       0                       # Number of times TLB was flushed by MVA
system.cpu0.dtb.flush_tlb_mva_asid                  0                       # Number of times TLB was flushed by MVA & ASID
system.cpu0.dtb.hits                                4                       # DTB hits
system.cpu0.dtb.inst_accesses                       0                       # ITB inst accesses
system.cpu0.dtb.inst_hits                           0                       # ITB inst hits
system.cpu0.dtb.inst_misses                         0                       # ITB inst misses
system.cpu0.dtb.misses                              2                       # DTB misses
system.cpu0.dtb.perms_faults                        0                       # Number of TLB faults due to permissions restrictions
system.cpu0.dtb.prefetch_faults                     0                       # Number of TLB faults due to prefetch
system.cpu0.dtb.read_accesses                       4                       # DTB read accesses
system.cpu0.dtb.read_hits                           2                       # DTB read hits
system.cpu0.dtb.read_misses                         2                       # DTB read misses
system.cpu0.dtb.stage2_mmu.stage2_tlb.accesses            0                       # DTB accesses
system.cpu0.dtb.stage2_mmu.stage2_tlb.align_faults            0                       # Number of TLB faults due to alignment restrictions
system.cpu0.dtb.stage2_mmu.stage2_tlb.domain_faults            0                       # Number of TLB faults due to domain restrictions
system.cpu0.dtb.stage2_mmu.stage2_tlb.flush_entries            0                       # Number of entries that have been flushed from TLB
system.cpu0.dtb.stage2_mmu.stage2_tlb.flush_tlb            0                       # Number of times complete TLB was flushed
system.cpu0.dtb.stage2_mmu.stage2_tlb.flush_tlb_asid            0                       # Number of times TLB was flushed by ASID
system.cpu0.dtb.stage2_mmu.stage2_tlb.flush_tlb_mva            0                       # Number of times TLB was flushed by MVA
system.cpu0.dtb.stage2_mmu.stage2_tlb.flush_tlb_mva_asid            0                       # Number of times TLB was flushed by MVA & ASID
system.cpu0.dtb.stage2_mmu.stage2_tlb.hits            0                       # DTB hits
system.cpu0.dtb.stage2_mmu.stage2_tlb.inst_accesses            0                       # ITB inst accesses
system.cpu0.dtb.stage2_mmu.stage2_tlb.inst_hits            0                       # ITB inst hits
system.cpu0.dtb.stage2_mmu.stage2_tlb.inst_misses            0                       # ITB inst misses
system.cpu0.dtb.stage2_mmu.stage2_tlb.misses            0                       # DTB misses
system.cpu0.dtb.stage2_mmu.stage2_tlb.perms_faults            0                       # Number of TLB faults due to permissions restrictions
system.cpu0.dtb.stage2_mmu.stage2_tlb.prefetch_faults            0                       # Number of TLB faults due to prefetch
system.cpu0.dtb.stage2_mmu.stage2_tlb.read_accesses            0                       # DTB read accesses
system.cpu0.dtb.stage2_mmu.stage2_tlb.read_hits            0                       # DTB read hits
system.cpu0.dtb.stage2_mmu.stage2_tlb.read_misses            0                       # DTB read misses
system.cpu0.dtb.stage2_mmu.stage2_tlb.walker.walkRequestOrigin_Requested::Data            0                       # Table walker requests started/completed, data/inst
system.cpu0.dtb.stage2_mmu.stage2_tlb.walker.walkRequestOrigin_Requested::Inst            0                       # Table walker requests started/completed, data/inst
system.cpu0.dtb.stage2_mmu.stage2_tlb.walker.walkRequestOrigin_Requested::total            0                       # Table walker requests started/completed, data/inst
system.cpu0.dtb.stage2_mmu.stage2_tlb.walker.walkRequestOrigin_Completed::Data            0                       # Table walker requests started/completed, data/inst
system.cpu0.dtb.stage2_mmu.stage2_tlb.walker.walkRequestOrigin_Completed::Inst            0                       # Table walker requests started/completed, data/inst
system.cpu0.dtb.stage2_mmu.stage2_tlb.walker.walkRequestOrigin_Completed::total            0                       # Table walker requests started/completed, data/inst
system.cpu0.dtb.stage2_mmu.stage2_tlb.walker.walkRequestOrigin::total            0                       # Table walker requests started/completed, data/inst
system.cpu0.dtb.stage2_mmu.stage2_tlb.walker.walks            0                       # Table walker walks requested
system.cpu0.dtb.stage2_mmu.stage2_tlb.write_accesses            0                       # DTB write accesses
system.cpu0.dtb.stage2_mmu.stage2_tlb.write_hits            0                       # DTB write hits
system.cpu0.dtb.stage2_mmu.stage2_tlb.write_misses            0                       # DTB write misses
system.cpu0.dtb.walker.walkPageSizes::4K            2    100.00%    100.00% # Table walker page sizes translated
system.cpu0.dtb.walker.walkPageSizes::total            2                       # Table walker page sizes translated
system.cpu0.dtb.walker.walkRequestOrigin_Requested::Data            2                       # Table walker requests started/completed, data/inst
system.cpu0.dtb.walker.walkRequestOrigin_Requested::Inst            0                       # Table walker requests started/completed, data/inst
system.cpu0.dtb.walker.walkRequestOrigin_Requested::total            2                       # Table walker requests started/completed, data/inst
system.cpu0.dtb.walker.walkRequestOrigin_Completed::Data            2                       # Table walker requests started/completed, data/inst
system.cpu0.dtb.walker.walkRequestOrigin_Completed::Inst            0                       # Table walker requests started/completed, data/inst
system.cpu0.dtb.walker.walkRequestOrigin_Completed::total            2                       # Table walker requests started/completed, data/inst
system.cpu0.dtb.walker.walkRequestOrigin::total            4                       # Table walker requests started/completed, data/inst
system.cpu0.dtb.walker.walkWaitTime::samples            2                       # Table walker wait (enqueue to first request) latency
system.cpu0.dtb.walker.walkWaitTime::0              2    100.00%    100.00% # Table walker wait (enqueue to first request) latency
system.cpu0.dtb.walker.walkWaitTime::total            2                       # Table walker wait (enqueue to first request) latency
system.cpu0.dtb.walker.walks                        2                       # Table walker walks requested
system.cpu0.dtb.walker.walksLong                    2                       # Table walker walks initiated with long descriptors
system.cpu0.dtb.walker.walksPending::samples  -1043953020                       # Table walker pending requests distribution
system.cpu0.dtb.walker.walksPending::mean    -0.000009                       # Table walker pending requests distribution
system.cpu0.dtb.walker.walksPending::0    -1043962020    100.00%    100.00% # Table walker pending requests distribution
system.cpu0.dtb.walker.walksPending::1           9000     -0.00%    100.00% # Table walker pending requests distribution
system.cpu0.dtb.walker.walksPending::total  -1043953020                       # Table walker pending requests distribution
system.cpu0.dtb.write_accesses                      2                       # DTB write accesses
system.cpu0.dtb.write_hits                          2                       # DTB write hits
system.cpu0.dtb.write_misses                        0                       # DTB write misses
system.cpu0.idle_fraction                           0                       # Percentage of idle cycles
system.cpu0.itb.accesses                           16                       # DTB accesses
system.cpu0.itb.align_faults                        0                       # Number of TLB faults due to alignment restrictions
system.cpu0.itb.domain_faults                       0                       # Number of TLB faults due to domain restrictions
system.cpu0.itb.flush_entries                       4                       # Number of entries that have been flushed from TLB
system.cpu0.itb.flush_tlb                           2                       # Number of times complete TLB was flushed
system.cpu0.itb.flush_tlb_asid                      0                       # Number of times TLB was flushed by ASID
system.cpu0.itb.flush_tlb_mva                       0                       # Number of times TLB was flushed by MVA
system.cpu0.itb.flush_tlb_mva_asid                  0                       # Number of times TLB was flushed by MVA & ASID
system.cpu0.itb.hits                               12                       # DTB hits
system.cpu0.itb.inst_accesses                      16                       # ITB inst accesses
system.cpu0.itb.inst_hits                          12                       # ITB inst hits
system.cpu0.itb.inst_misses                         4                       # ITB inst misses
system.cpu0.itb.misses                              4                       # DTB misses
system.cpu0.itb.perms_faults                        0                       # Number of TLB faults due to permissions restrictions
system.cpu0.itb.prefetch_faults                     0                       # Number of TLB faults due to prefetch
system.cpu0.itb.read_accesses                       0                       # DTB read accesses
system.cpu0.itb.read_hits                           0                       # DTB read hits
system.cpu0.itb.read_misses                         0                       # DTB read misses
system.cpu0.itb.stage2_mmu.stage2_tlb.accesses            0                       # DTB accesses
system.cpu0.itb.stage2_mmu.stage2_tlb.align_faults            0                       # Number of TLB faults due to alignment restrictions
system.cpu0.itb.stage2_mmu.stage2_tlb.domain_faults            0                       # Number of TLB faults due to domain restrictions
system.cpu0.itb.stage2_mmu.stage2_tlb.flush_entries            0                       # Number of entries that have been flushed from TLB
system.cpu0.itb.stage2_mmu.stage2_tlb.flush_tlb            0                       # Number of times complete TLB was flushed
system.cpu0.itb.stage2_mmu.stage2_tlb.flush_tlb_asid            0                       # Number of times TLB was flushed by ASID
system.cpu0.itb.stage2_mmu.stage2_tlb.flush_tlb_mva            0                       # Number of times TLB was flushed by MVA
system.cpu0.itb.stage2_mmu.stage2_tlb.flush_tlb_mva_asid            0                       # Number of times TLB was flushed by MVA & ASID
system.cpu0.itb.stage2_mmu.stage2_tlb.hits            0                       # DTB hits
system.cpu0.itb.stage2_mmu.stage2_tlb.inst_accesses            0                       # ITB inst accesses
system.cpu0.itb.stage2_mmu.stage2_tlb.inst_hits            0                       # ITB inst hits
system.cpu0.itb.stage2_mmu.stage2_tlb.inst_misses            0                       # ITB inst misses
system.cpu0.itb.stage2_mmu.stage2_tlb.misses            0                       # DTB misses
system.cpu0.itb.stage2_mmu.stage2_tlb.perms_faults            0                       # Number of TLB faults due to permissions restrictions
system.cpu0.itb.stage2_mmu.stage2_tlb.prefetch_faults            0                       # Number of TLB faults due to prefetch
system.cpu0.itb.stage2_mmu.stage2_tlb.read_accesses            0                       # DTB read accesses
system.cpu0.itb.stage2_mmu.stage2_tlb.read_hits            0                       # DTB read hits
system.cpu0.itb.stage2_mmu.stage2_tlb.read_misses            0                       # DTB read misses
system.cpu0.itb.stage2_mmu.stage2_tlb.walker.walkRequestOrigin_Requested::Data            0                       # Table walker requests started/completed, data/inst
system.cpu0.itb.stage2_mmu.stage2_tlb.walker.walkRequestOrigin_Requested::Inst            0                       # Table walker requests started/completed, data/inst
system.cpu0.itb.stage2_mmu.stage2_tlb.walker.walkRequestOrigin_Requested::total            0                       # Table walker requests started/completed, data/inst
system.cpu0.itb.stage2_mmu.stage2_tlb.walker.walkRequestOrigin_Completed::Data            0                       # Table walker requests started/completed, data/inst
system.cpu0.itb.stage2_mmu.stage2_tlb.walker.walkRequestOrigin_Completed::Inst            0                       # Table walker requests started/completed, data/inst
system.cpu0.itb.stage2_mmu.stage2_tlb.walker.walkRequestOrigin_Completed::total            0                       # Table walker requests started/completed, data/inst
system.cpu0.itb.stage2_mmu.stage2_tlb.walker.walkRequestOrigin::total            0                       # Table walker requests started/completed, data/inst
system.cpu0.itb.stage2_mmu.stage2_tlb.walker.walks            0                       # Table walker walks requested
system.cpu0.itb.stage2_mmu.stage2_tlb.write_accesses            0                       # DTB write accesses
system.cpu0.itb.stage2_mmu.stage2_tlb.write_hits            0                       # DTB write hits
system.cpu0.itb.stage2_mmu.stage2_tlb.write_misses            0                       # DTB write misses
system.cpu0.itb.walker.walkPageSizes::4K            4    100.00%    100.00% # Table walker page sizes translated
system.cpu0.itb.walker.walkPageSizes::total            4                       # Table walker page sizes translated
system.cpu0.itb.walker.walkRequestOrigin_Requested::Data            0                       # Table walker requests started/completed, data/inst
system.cpu0.itb.walker.walkRequestOrigin_Requested::Inst            4                       # Table walker requests started/completed, data/inst
system.cpu0.itb.walker.walkRequestOrigin_Requested::total            4                       # Table walker requests started/completed, data/inst
system.cpu0.itb.walker.walkRequestOrigin_Completed::Data            0                       # Table walker requests started/completed, data/inst
system.cpu0.itb.walker.walkRequestOrigin_Completed::Inst            4                       # Table walker requests started/completed, data/inst
system.cpu0.itb.walker.walkRequestOrigin_Completed::total            4                       # Table walker requests started/completed, data/inst
system.cpu0.itb.walker.walkRequestOrigin::total            8                       # Table walker requests started/completed, data/inst
system.cpu0.itb.walker.walkWaitTime::samples            4                       # Table walker wait (enqueue to first request) latency
system.cpu0.itb.walker.walkWaitTime::0              4    100.00%    100.00% # Table walker wait (enqueue to first request) latency
system.cpu0.itb.walker.walkWaitTime::total            4                       # Table walker wait (enqueue to first request) latency
system.cpu0.itb.walker.walks                        4                       # Table walker walks requested
system.cpu0.itb.walker.walksLong                    4                       # Table walker walks initiated with long descriptors
system.cpu0.itb.walker.walksPending::samples  -1043953020                       # Table walker pending requests distribution
system.cpu0.itb.walker.walksPending::mean    -0.000009                       # Table walker pending requests distribution
system.cpu0.itb.walker.walksPending::0    -1043962520    100.00%    100.00% # Table walker pending requests distribution
system.cpu0.itb.walker.walksPending::1           9500     -0.00%    100.00% # Table walker pending requests distribution
system.cpu0.itb.walker.walksPending::total  -1043953020                       # Table walker pending requests distribution
system.cpu0.itb.write_accesses                      0                       # DTB write accesses
system.cpu0.itb.write_hits                          0                       # DTB write hits
system.cpu0.itb.write_misses                        0                       # DTB write misses
system.cpu0.kern.inst.arm                           0                       # number of arm instructions executed
system.cpu0.kern.inst.quiesce                     515                       # number of quiesce instructions executed
system.cpu0.not_idle_fraction                       1                       # Percentage of non-idle cycles
system.cpu0.numCycles                              20                       # number of cpu cycles simulated
system.cpu0.numWorkItemsCompleted                   0                       # number of work items this cpu completed
system.cpu0.numWorkItemsStarted                     0                       # number of work items this cpu started
system.cpu0.num_busy_cycles                        20                       # Number of busy cycles
system.cpu0.num_conditional_control_insts            1                       # number of instructions that are conditional controls
system.cpu0.num_fp_alu_accesses                     0                       # Number of float alu accesses
system.cpu0.num_fp_insts                            0                       # number of float instructions
system.cpu0.num_fp_register_reads                   0                       # number of times the floating registers were read
system.cpu0.num_fp_register_writes                  0                       # number of times the floating registers were written
system.cpu0.num_func_calls                          3                       # number of times a function call or return occured
system.cpu0.num_idle_cycles                         0                       # Number of idle cycles
system.cpu0.num_int_alu_accesses                   20                       # Number of integer alu accesses
system.cpu0.num_int_insts                          20                       # number of integer instructions
system.cpu0.num_int_register_reads                 22                       # number of times the integer registers were read
system.cpu0.num_int_register_writes                16                       # number of times the integer registers were written
system.cpu0.num_load_insts                          4                       # Number of load instructions
system.cpu0.num_mem_refs                            6                       # number of memory refs
system.cpu0.num_store_insts                         2                       # Number of store instructions
system.cpu0.num_vec_alu_accesses                    0                       # Number of vector alu accesses
system.cpu0.num_vec_insts                           0                       # number of vector instructions
system.cpu0.num_vec_register_reads                  0                       # number of times the vector registers were read
system.cpu0.num_vec_register_writes                 0                       # number of times the vector registers were written
system.cpu0.op_class::No_OpClass                    0      0.00%      0.00% # Class of executed instruction
system.cpu0.op_class::IntAlu                       14     70.00%     70.00% # Class of executed instruction
system.cpu0.op_class::IntMult                       0      0.00%     70.00% # Class of executed instruction
system.cpu0.op_class::IntDiv                        0      0.00%     70.00% # Class of executed instruction
system.cpu0.op_class::FloatAdd                      0      0.00%     70.00% # Class of executed instruction
system.cpu0.op_class::FloatCmp                      0      0.00%     70.00% # Class of executed instruction
system.cpu0.op_class::FloatCvt                      0      0.00%     70.00% # Class of executed instruction
system.cpu0.op_class::FloatMult                     0      0.00%     70.00% # Class of executed instruction
system.cpu0.op_class::FloatMultAcc                  0      0.00%     70.00% # Class of executed instruction
system.cpu0.op_class::FloatDiv                      0      0.00%     70.00% # Class of executed instruction
system.cpu0.op_class::FloatMisc                     0      0.00%     70.00% # Class of executed instruction
system.cpu0.op_class::FloatSqrt                     0      0.00%     70.00% # Class of executed instruction
system.cpu0.op_class::SimdAdd                       0      0.00%     70.00% # Class of executed instruction
system.cpu0.op_class::SimdAddAcc                    0      0.00%     70.00% # Class of executed instruction
system.cpu0.op_class::SimdAlu                       0      0.00%     70.00% # Class of executed instruction
system.cpu0.op_class::SimdCmp                       0      0.00%     70.00% # Class of executed instruction
system.cpu0.op_class::SimdCvt                       0      0.00%     70.00% # Class of executed instruction
system.cpu0.op_class::SimdMisc                      0      0.00%     70.00% # Class of executed instruction
system.cpu0.op_class::SimdMult                      0      0.00%     70.00% # Class of executed instruction
system.cpu0.op_class::SimdMultAcc                   0      0.00%     70.00% # Class of executed instruction
system.cpu0.op_class::SimdShift                     0      0.00%     70.00% # Class of executed instruction
system.cpu0.op_class::SimdShiftAcc                  0      0.00%     70.00% # Class of executed instruction
system.cpu0.op_class::SimdDiv                       0      0.00%     70.00% # Class of executed instruction
system.cpu0.op_class::SimdSqrt                      0      0.00%     70.00% # Class of executed instruction
system.cpu0.op_class::SimdFloatAdd                  0      0.00%     70.00% # Class of executed instruction
system.cpu0.op_class::SimdFloatAlu                  0      0.00%     70.00% # Class of executed instruction
system.cpu0.op_class::SimdFloatCmp                  0      0.00%     70.00% # Class of executed instruction
system.cpu0.op_class::SimdFloatCvt                  0      0.00%     70.00% # Class of executed instruction
system.cpu0.op_class::SimdFloatDiv                  0      0.00%     70.00% # Class of executed instruction
system.cpu0.op_class::SimdFloatMisc                 0      0.00%     70.00% # Class of executed instruction
system.cpu0.op_class::SimdFloatMult                 0      0.00%     70.00% # Class of executed instruction
system.cpu0.op_class::SimdFloatMultAcc              0      0.00%     70.00% # Class of executed instruction
system.cpu0.op_class::SimdFloatSqrt                 0      0.00%     70.00% # Class of executed instruction
system.cpu0.op_class::SimdReduceAdd                 0      0.00%     70.00% # Class of executed instruction
system.cpu0.op_class::SimdReduceAlu                 0      0.00%     70.00% # Class of executed instruction
system.cpu0.op_class::SimdReduceCmp                 0      0.00%     70.00% # Class of executed instruction
system.cpu0.op_class::SimdFloatReduceAdd            0      0.00%     70.00% # Class of executed instruction
system.cpu0.op_class::SimdFloatReduceCmp            0      0.00%     70.00% # Class of executed instruction
system.cpu0.op_class::SimdAes                       0      0.00%     70.00% # Class of executed instruction
system.cpu0.op_class::SimdAesMix                    0      0.00%     70.00% # Class of executed instruction
system.cpu0.op_class::SimdSha1Hash                  0      0.00%     70.00% # Class of executed instruction
system.cpu0.op_class::SimdSha1Hash2                 0      0.00%     70.00% # Class of executed instruction
system.cpu0.op_class::SimdSha256Hash                0      0.00%     70.00% # Class of executed instruction
system.cpu0.op_class::SimdSha256Hash2               0      0.00%     70.00% # Class of executed instruction
system.cpu0.op_class::SimdShaSigma2                 0      0.00%     70.00% # Class of executed instruction
system.cpu0.op_class::SimdShaSigma3                 0      0.00%     70.00% # Class of executed instruction
system.cpu0.op_class::SimdPredAlu                   0      0.00%     70.00% # Class of executed instruction
system.cpu0.op_class::MemRead                       4     20.00%     90.00% # Class of executed instruction
system.cpu0.op_class::MemWrite                      2     10.00%    100.00% # Class of executed instruction
system.cpu0.op_class::FloatMemRead                  0      0.00%    100.00% # Class of executed instruction
system.cpu0.op_class::FloatMemWrite                 0      0.00%    100.00% # Class of executed instruction
system.cpu0.op_class::IprAccess                     0      0.00%    100.00% # Class of executed instruction
system.cpu0.op_class::InstPrefetch                  0      0.00%    100.00% # Class of executed instruction
system.cpu0.op_class::total                        20                       # Class of executed instruction
system.cpu1.Branches                                1                       # Number of branches fetched
system.cpu1.committedInsts                          1                       # Number of instructions committed
system.cpu1.committedOps                            1                       # Number of ops (including micro ops) committed
system.cpu1.dtb.accesses                            0                       # DTB accesses
system.cpu1.dtb.align_faults                        0                       # Number of TLB faults due to alignment restrictions
system.cpu1.dtb.domain_faults                       0                       # Number of TLB faults due to domain restrictions
system.cpu1.dtb.flush_entries                       0                       # Number of entries that have been flushed from TLB
system.cpu1.dtb.flush_tlb                           2                       # Number of times complete TLB was flushed
system.cpu1.dtb.flush_tlb_asid                      0                       # Number of times TLB was flushed by ASID
system.cpu1.dtb.flush_tlb_mva                       0                       # Number of times TLB was flushed by MVA
system.cpu1.dtb.flush_tlb_mva_asid                  0                       # Number of times TLB was flushed by MVA & ASID
system.cpu1.dtb.hits                                0                       # DTB hits
system.cpu1.dtb.inst_accesses                       0                       # ITB inst accesses
system.cpu1.dtb.inst_hits                           0                       # ITB inst hits
system.cpu1.dtb.inst_misses                         0                       # ITB inst misses
system.cpu1.dtb.misses                              0                       # DTB misses
system.cpu1.dtb.perms_faults                        0                       # Number of TLB faults due to permissions restrictions
system.cpu1.dtb.prefetch_faults                     0                       # Number of TLB faults due to prefetch
system.cpu1.dtb.read_accesses                       0                       # DTB read accesses
system.cpu1.dtb.read_hits                           0                       # DTB read hits
system.cpu1.dtb.read_misses                         0                       # DTB read misses
system.cpu1.dtb.stage2_mmu.stage2_tlb.accesses            0                       # DTB accesses
system.cpu1.dtb.stage2_mmu.stage2_tlb.align_faults            0                       # Number of TLB faults due to alignment restrictions
system.cpu1.dtb.stage2_mmu.stage2_tlb.domain_faults            0                       # Number of TLB faults due to domain restrictions
system.cpu1.dtb.stage2_mmu.stage2_tlb.flush_entries            0                       # Number of entries that have been flushed from TLB
system.cpu1.dtb.stage2_mmu.stage2_tlb.flush_tlb            0                       # Number of times complete TLB was flushed
system.cpu1.dtb.stage2_mmu.stage2_tlb.flush_tlb_asid            0                       # Number of times TLB was flushed by ASID
system.cpu1.dtb.stage2_mmu.stage2_tlb.flush_tlb_mva            0                       # Number of times TLB was flushed by MVA
system.cpu1.dtb.stage2_mmu.stage2_tlb.flush_tlb_mva_asid            0                       # Number of times TLB was flushed by MVA & ASID
system.cpu1.dtb.stage2_mmu.stage2_tlb.hits            0                       # DTB hits
system.cpu1.dtb.stage2_mmu.stage2_tlb.inst_accesses            0                       # ITB inst accesses
system.cpu1.dtb.stage2_mmu.stage2_tlb.inst_hits            0                       # ITB inst hits
system.cpu1.dtb.stage2_mmu.stage2_tlb.inst_misses            0                       # ITB inst misses
system.cpu1.dtb.stage2_mmu.stage2_tlb.misses            0                       # DTB misses
system.cpu1.dtb.stage2_mmu.stage2_tlb.perms_faults            0                       # Number of TLB faults due to permissions restrictions
system.cpu1.dtb.stage2_mmu.stage2_tlb.prefetch_faults            0                       # Number of TLB faults due to prefetch
system.cpu1.dtb.stage2_mmu.stage2_tlb.read_accesses            0                       # DTB read accesses
system.cpu1.dtb.stage2_mmu.stage2_tlb.read_hits            0                       # DTB read hits
system.cpu1.dtb.stage2_mmu.stage2_tlb.read_misses            0                       # DTB read misses
system.cpu1.dtb.stage2_mmu.stage2_tlb.walker.walkRequestOrigin_Requested::Data            0                       # Table walker requests started/completed, data/inst
system.cpu1.dtb.stage2_mmu.stage2_tlb.walker.walkRequestOrigin_Requested::Inst            0                       # Table walker requests started/completed, data/inst
system.cpu1.dtb.stage2_mmu.stage2_tlb.walker.walkRequestOrigin_Requested::total            0                       # Table walker requests started/completed, data/inst
system.cpu1.dtb.stage2_mmu.stage2_tlb.walker.walkRequestOrigin_Completed::Data            0                       # Table walker requests started/completed, data/inst
system.cpu1.dtb.stage2_mmu.stage2_tlb.walker.walkRequestOrigin_Completed::Inst            0                       # Table walker requests started/completed, data/inst
system.cpu1.dtb.stage2_mmu.stage2_tlb.walker.walkRequestOrigin_Completed::total            0                       # Table walker requests started/completed, data/inst
system.cpu1.dtb.stage2_mmu.stage2_tlb.walker.walkRequestOrigin::total            0                       # Table walker requests started/completed, data/inst
system.cpu1.dtb.stage2_mmu.stage2_tlb.walker.walks            0                       # Table walker walks requested
system.cpu1.dtb.stage2_mmu.stage2_tlb.write_accesses            0                       # DTB write accesses
system.cpu1.dtb.stage2_mmu.stage2_tlb.write_hits            0                       # DTB write hits
system.cpu1.dtb.stage2_mmu.stage2_tlb.write_misses            0                       # DTB write misses
system.cpu1.dtb.walker.walkRequestOrigin_Requested::Data            0                       # Table walker requests started/completed, data/inst
system.cpu1.dtb.walker.walkRequestOrigin_Requested::Inst            0                       # Table walker requests started/completed, data/inst
system.cpu1.dtb.walker.walkRequestOrigin_Requested::total            0                       # Table walker requests started/completed, data/inst
system.cpu1.dtb.walker.walkRequestOrigin_Completed::Data            0                       # Table walker requests started/completed, data/inst
system.cpu1.dtb.walker.walkRequestOrigin_Completed::Inst            0                       # Table walker requests started/completed, data/inst
system.cpu1.dtb.walker.walkRequestOrigin_Completed::total            0                       # Table walker requests started/completed, data/inst
system.cpu1.dtb.walker.walkRequestOrigin::total            0                       # Table walker requests started/completed, data/inst
system.cpu1.dtb.walker.walks                        0                       # Table walker walks requested
system.cpu1.dtb.write_accesses                      0                       # DTB write accesses
system.cpu1.dtb.write_hits                          0                       # DTB write hits
system.cpu1.dtb.write_misses                        0                       # DTB write misses
system.cpu1.idle_fraction                    0.000000                       # Percentage of idle cycles
system.cpu1.itb.accesses                            1                       # DTB accesses
system.cpu1.itb.align_faults                        0                       # Number of TLB faults due to alignment restrictions
system.cpu1.itb.domain_faults                       0                       # Number of TLB faults due to domain restrictions
system.cpu1.itb.flush_entries                       1                       # Number of entries that have been flushed from TLB
system.cpu1.itb.flush_tlb                           2                       # Number of times complete TLB was flushed
system.cpu1.itb.flush_tlb_asid                      0                       # Number of times TLB was flushed by ASID
system.cpu1.itb.flush_tlb_mva                       0                       # Number of times TLB was flushed by MVA
system.cpu1.itb.flush_tlb_mva_asid                  0                       # Number of times TLB was flushed by MVA & ASID
system.cpu1.itb.hits                                0                       # DTB hits
system.cpu1.itb.inst_accesses                       1                       # ITB inst accesses
system.cpu1.itb.inst_hits                           0                       # ITB inst hits
system.cpu1.itb.inst_misses                         1                       # ITB inst misses
system.cpu1.itb.misses                              1                       # DTB misses
system.cpu1.itb.perms_faults                        0                       # Number of TLB faults due to permissions restrictions
system.cpu1.itb.prefetch_faults                     0                       # Number of TLB faults due to prefetch
system.cpu1.itb.read_accesses                       0                       # DTB read accesses
system.cpu1.itb.read_hits                           0                       # DTB read hits
system.cpu1.itb.read_misses                         0                       # DTB read misses
system.cpu1.itb.stage2_mmu.stage2_tlb.accesses            0                       # DTB accesses
system.cpu1.itb.stage2_mmu.stage2_tlb.align_faults            0                       # Number of TLB faults due to alignment restrictions
system.cpu1.itb.stage2_mmu.stage2_tlb.domain_faults            0                       # Number of TLB faults due to domain restrictions
system.cpu1.itb.stage2_mmu.stage2_tlb.flush_entries            0                       # Number of entries that have been flushed from TLB
system.cpu1.itb.stage2_mmu.stage2_tlb.flush_tlb            0                       # Number of times complete TLB was flushed
system.cpu1.itb.stage2_mmu.stage2_tlb.flush_tlb_asid            0                       # Number of times TLB was flushed by ASID
system.cpu1.itb.stage2_mmu.stage2_tlb.flush_tlb_mva            0                       # Number of times TLB was flushed by MVA
system.cpu1.itb.stage2_mmu.stage2_tlb.flush_tlb_mva_asid            0                       # Number of times TLB was flushed by MVA & ASID
system.cpu1.itb.stage2_mmu.stage2_tlb.hits            0                       # DTB hits
system.cpu1.itb.stage2_mmu.stage2_tlb.inst_accesses            0                       # ITB inst accesses
system.cpu1.itb.stage2_mmu.stage2_tlb.inst_hits            0                       # ITB inst hits
system.cpu1.itb.stage2_mmu.stage2_tlb.inst_misses            0                       # ITB inst misses
system.cpu1.itb.stage2_mmu.stage2_tlb.misses            0                       # DTB misses
system.cpu1.itb.stage2_mmu.stage2_tlb.perms_faults            0                       # Number of TLB faults due to permissions restrictions
system.cpu1.itb.stage2_mmu.stage2_tlb.prefetch_faults            0                       # Number of TLB faults due to prefetch
system.cpu1.itb.stage2_mmu.stage2_tlb.read_accesses            0                       # DTB read accesses
system.cpu1.itb.stage2_mmu.stage2_tlb.read_hits            0                       # DTB read hits
system.cpu1.itb.stage2_mmu.stage2_tlb.read_misses            0                       # DTB read misses
system.cpu1.itb.stage2_mmu.stage2_tlb.walker.walkRequestOrigin_Requested::Data            0                       # Table walker requests started/completed, data/inst
system.cpu1.itb.stage2_mmu.stage2_tlb.walker.walkRequestOrigin_Requested::Inst            0                       # Table walker requests started/completed, data/inst
system.cpu1.itb.stage2_mmu.stage2_tlb.walker.walkRequestOrigin_Requested::total            0                       # Table walker requests started/completed, data/inst
system.cpu1.itb.stage2_mmu.stage2_tlb.walker.walkRequestOrigin_Completed::Data            0                       # Table walker requests started/completed, data/inst
system.cpu1.itb.stage2_mmu.stage2_tlb.walker.walkRequestOrigin_Completed::Inst            0                       # Table walker requests started/completed, data/inst
system.cpu1.itb.stage2_mmu.stage2_tlb.walker.walkRequestOrigin_Completed::total            0                       # Table walker requests started/completed, data/inst
system.cpu1.itb.stage2_mmu.stage2_tlb.walker.walkRequestOrigin::total            0                       # Table walker requests started/completed, data/inst
system.cpu1.itb.stage2_mmu.stage2_tlb.walker.walks            0                       # Table walker walks requested
system.cpu1.itb.stage2_mmu.stage2_tlb.write_accesses            0                       # DTB write accesses
system.cpu1.itb.stage2_mmu.stage2_tlb.write_hits            0                       # DTB write hits
system.cpu1.itb.stage2_mmu.stage2_tlb.write_misses            0                       # DTB write misses
system.cpu1.itb.walker.walkPageSizes::4K            1    100.00%    100.00% # Table walker page sizes translated
system.cpu1.itb.walker.walkPageSizes::total            1                       # Table walker page sizes translated
system.cpu1.itb.walker.walkRequestOrigin_Requested::Data            0                       # Table walker requests started/completed, data/inst
system.cpu1.itb.walker.walkRequestOrigin_Requested::Inst            1                       # Table walker requests started/completed, data/inst
system.cpu1.itb.walker.walkRequestOrigin_Requested::total            1                       # Table walker requests started/completed, data/inst
system.cpu1.itb.walker.walkRequestOrigin_Completed::Data            0                       # Table walker requests started/completed, data/inst
system.cpu1.itb.walker.walkRequestOrigin_Completed::Inst            1                       # Table walker requests started/completed, data/inst
system.cpu1.itb.walker.walkRequestOrigin_Completed::total            1                       # Table walker requests started/completed, data/inst
system.cpu1.itb.walker.walkRequestOrigin::total            2                       # Table walker requests started/completed, data/inst
system.cpu1.itb.walker.walkWaitTime::samples            1                       # Table walker wait (enqueue to first request) latency
system.cpu1.itb.walker.walkWaitTime::0              1    100.00%    100.00% # Table walker wait (enqueue to first request) latency
system.cpu1.itb.walker.walkWaitTime::total            1                       # Table walker wait (enqueue to first request) latency
system.cpu1.itb.walker.walks                        1                       # Table walker walks requested
system.cpu1.itb.walker.walksLong                    1                       # Table walker walks initiated with long descriptors
system.cpu1.itb.walker.walksPending::samples  -1043953020                       # Table walker pending requests distribution
system.cpu1.itb.walker.walksPending::0    -1043953020    100.00%    100.00% # Table walker pending requests distribution
system.cpu1.itb.walker.walksPending::total  -1043953020                       # Table walker pending requests distribution
system.cpu1.itb.write_accesses                      0                       # DTB write accesses
system.cpu1.itb.write_hits                          0                       # DTB write hits
system.cpu1.itb.write_misses                        0                       # DTB write misses
system.cpu1.kern.inst.arm                           0                       # number of arm instructions executed
system.cpu1.kern.inst.quiesce                     464                       # number of quiesce instructions executed
system.cpu1.not_idle_fraction                1.000000                       # Percentage of non-idle cycles
system.cpu1.numCycles                      2102446070                       # number of cpu cycles simulated
system.cpu1.numWorkItemsCompleted                   0                       # number of work items this cpu completed
system.cpu1.numWorkItemsStarted                     0                       # number of work items this cpu started
system.cpu1.num_busy_cycles              2102446069.035801                       # Number of busy cycles
system.cpu1.num_conditional_control_insts            0                       # number of instructions that are conditional controls
system.cpu1.num_fp_alu_accesses                     0                       # Number of float alu accesses
system.cpu1.num_fp_insts                            0                       # number of float instructions
system.cpu1.num_fp_register_reads                   0                       # number of times the floating registers were read
system.cpu1.num_fp_register_writes                  0                       # number of times the floating registers were written
system.cpu1.num_func_calls                          1                       # number of times a function call or return occured
system.cpu1.num_idle_cycles                  0.964199                       # Number of idle cycles
system.cpu1.num_int_alu_accesses                    1                       # Number of integer alu accesses
system.cpu1.num_int_insts                           1                       # number of integer instructions
system.cpu1.num_int_register_reads                  1                       # number of times the integer registers were read
system.cpu1.num_int_register_writes                 0                       # number of times the integer registers were written
system.cpu1.num_load_insts                          0                       # Number of load instructions
system.cpu1.num_mem_refs                            0                       # number of memory refs
system.cpu1.num_store_insts                         0                       # Number of store instructions
system.cpu1.num_vec_alu_accesses                    0                       # Number of vector alu accesses
system.cpu1.num_vec_insts                           0                       # number of vector instructions
system.cpu1.num_vec_register_reads                  0                       # number of times the vector registers were read
system.cpu1.num_vec_register_writes                 0                       # number of times the vector registers were written
system.cpu1.op_class::No_OpClass                    0      0.00%      0.00% # Class of executed instruction
system.cpu1.op_class::IntAlu                        1    100.00%    100.00% # Class of executed instruction
system.cpu1.op_class::IntMult                       0      0.00%    100.00% # Class of executed instruction
system.cpu1.op_class::IntDiv                        0      0.00%    100.00% # Class of executed instruction
system.cpu1.op_class::FloatAdd                      0      0.00%    100.00% # Class of executed instruction
system.cpu1.op_class::FloatCmp                      0      0.00%    100.00% # Class of executed instruction
system.cpu1.op_class::FloatCvt                      0      0.00%    100.00% # Class of executed instruction
system.cpu1.op_class::FloatMult                     0      0.00%    100.00% # Class of executed instruction
system.cpu1.op_class::FloatMultAcc                  0      0.00%    100.00% # Class of executed instruction
system.cpu1.op_class::FloatDiv                      0      0.00%    100.00% # Class of executed instruction
system.cpu1.op_class::FloatMisc                     0      0.00%    100.00% # Class of executed instruction
system.cpu1.op_class::FloatSqrt                     0      0.00%    100.00% # Class of executed instruction
system.cpu1.op_class::SimdAdd                       0      0.00%    100.00% # Class of executed instruction
system.cpu1.op_class::SimdAddAcc                    0      0.00%    100.00% # Class of executed instruction
system.cpu1.op_class::SimdAlu                       0      0.00%    100.00% # Class of executed instruction
system.cpu1.op_class::SimdCmp                       0      0.00%    100.00% # Class of executed instruction
system.cpu1.op_class::SimdCvt                       0      0.00%    100.00% # Class of executed instruction
system.cpu1.op_class::SimdMisc                      0      0.00%    100.00% # Class of executed instruction
system.cpu1.op_class::SimdMult                      0      0.00%    100.00% # Class of executed instruction
system.cpu1.op_class::SimdMultAcc                   0      0.00%    100.00% # Class of executed instruction
system.cpu1.op_class::SimdShift                     0      0.00%    100.00% # Class of executed instruction
system.cpu1.op_class::SimdShiftAcc                  0      0.00%    100.00% # Class of executed instruction
system.cpu1.op_class::SimdDiv                       0      0.00%    100.00% # Class of executed instruction
system.cpu1.op_class::SimdSqrt                      0      0.00%    100.00% # Class of executed instruction
system.cpu1.op_class::SimdFloatAdd                  0      0.00%    100.00% # Class of executed instruction
system.cpu1.op_class::SimdFloatAlu                  0      0.00%    100.00% # Class of executed instruction
system.cpu1.op_class::SimdFloatCmp                  0      0.00%    100.00% # Class of executed instruction
system.cpu1.op_class::SimdFloatCvt                  0      0.00%    100.00% # Class of executed instruction
system.cpu1.op_class::SimdFloatDiv                  0      0.00%    100.00% # Class of executed instruction
system.cpu1.op_class::SimdFloatMisc                 0      0.00%    100.00% # Class of executed instruction
system.cpu1.op_class::SimdFloatMult                 0      0.00%    100.00% # Class of executed instruction
system.cpu1.op_class::SimdFloatMultAcc              0      0.00%    100.00% # Class of executed instruction
system.cpu1.op_class::SimdFloatSqrt                 0      0.00%    100.00% # Class of executed instruction
system.cpu1.op_class::SimdReduceAdd                 0      0.00%    100.00% # Class of executed instruction
system.cpu1.op_class::SimdReduceAlu                 0      0.00%    100.00% # Class of executed instruction
system.cpu1.op_class::SimdReduceCmp                 0      0.00%    100.00% # Class of executed instruction
system.cpu1.op_class::SimdFloatReduceAdd            0      0.00%    100.00% # Class of executed instruction
system.cpu1.op_class::SimdFloatReduceCmp            0      0.00%    100.00% # Class of executed instruction
system.cpu1.op_class::SimdAes                       0      0.00%    100.00% # Class of executed instruction
system.cpu1.op_class::SimdAesMix                    0      0.00%    100.00% # Class of executed instruction
system.cpu1.op_class::SimdSha1Hash                  0      0.00%    100.00% # Class of executed instruction
system.cpu1.op_class::SimdSha1Hash2                 0      0.00%    100.00% # Class of executed instruction
system.cpu1.op_class::SimdSha256Hash                0      0.00%    100.00% # Class of executed instruction
system.cpu1.op_class::SimdSha256Hash2               0      0.00%    100.00% # Class of executed instruction
system.cpu1.op_class::SimdShaSigma2                 0      0.00%    100.00% # Class of executed instruction
system.cpu1.op_class::SimdShaSigma3                 0      0.00%    100.00% # Class of executed instruction
system.cpu1.op_class::SimdPredAlu                   0      0.00%    100.00% # Class of executed instruction
system.cpu1.op_class::MemRead                       0      0.00%    100.00% # Class of executed instruction
system.cpu1.op_class::MemWrite                      0      0.00%    100.00% # Class of executed instruction
system.cpu1.op_class::FloatMemRead                  0      0.00%    100.00% # Class of executed instruction
system.cpu1.op_class::FloatMemWrite                 0      0.00%    100.00% # Class of executed instruction
system.cpu1.op_class::IprAccess                     0      0.00%    100.00% # Class of executed instruction
system.cpu1.op_class::InstPrefetch                  0      0.00%    100.00% # Class of executed instruction
system.cpu1.op_class::total                         1                       # Class of executed instruction
system.cpu2.Branches                                1                       # Number of branches fetched
system.cpu2.committedInsts                          1                       # Number of instructions committed
system.cpu2.committedOps                            1                       # Number of ops (including micro ops) committed
system.cpu2.dtb.accesses                            0                       # DTB accesses
system.cpu2.dtb.align_faults                        0                       # Number of TLB faults due to alignment restrictions
system.cpu2.dtb.domain_faults                       0                       # Number of TLB faults due to domain restrictions
system.cpu2.dtb.flush_entries                       0                       # Number of entries that have been flushed from TLB
system.cpu2.dtb.flush_tlb                           2                       # Number of times complete TLB was flushed
system.cpu2.dtb.flush_tlb_asid                      0                       # Number of times TLB was flushed by ASID
system.cpu2.dtb.flush_tlb_mva                       0                       # Number of times TLB was flushed by MVA
system.cpu2.dtb.flush_tlb_mva_asid                  0                       # Number of times TLB was flushed by MVA & ASID
system.cpu2.dtb.hits                                0                       # DTB hits
system.cpu2.dtb.inst_accesses                       0                       # ITB inst accesses
system.cpu2.dtb.inst_hits                           0                       # ITB inst hits
system.cpu2.dtb.inst_misses                         0                       # ITB inst misses
system.cpu2.dtb.misses                              0                       # DTB misses
system.cpu2.dtb.perms_faults                        0                       # Number of TLB faults due to permissions restrictions
system.cpu2.dtb.prefetch_faults                     0                       # Number of TLB faults due to prefetch
system.cpu2.dtb.read_accesses                       0                       # DTB read accesses
system.cpu2.dtb.read_hits                           0                       # DTB read hits
system.cpu2.dtb.read_misses                         0                       # DTB read misses
system.cpu2.dtb.stage2_mmu.stage2_tlb.accesses            0                       # DTB accesses
system.cpu2.dtb.stage2_mmu.stage2_tlb.align_faults            0                       # Number of TLB faults due to alignment restrictions
system.cpu2.dtb.stage2_mmu.stage2_tlb.domain_faults            0                       # Number of TLB faults due to domain restrictions
system.cpu2.dtb.stage2_mmu.stage2_tlb.flush_entries            0                       # Number of entries that have been flushed from TLB
system.cpu2.dtb.stage2_mmu.stage2_tlb.flush_tlb            0                       # Number of times complete TLB was flushed
system.cpu2.dtb.stage2_mmu.stage2_tlb.flush_tlb_asid            0                       # Number of times TLB was flushed by ASID
system.cpu2.dtb.stage2_mmu.stage2_tlb.flush_tlb_mva            0                       # Number of times TLB was flushed by MVA
system.cpu2.dtb.stage2_mmu.stage2_tlb.flush_tlb_mva_asid            0                       # Number of times TLB was flushed by MVA & ASID
system.cpu2.dtb.stage2_mmu.stage2_tlb.hits            0                       # DTB hits
system.cpu2.dtb.stage2_mmu.stage2_tlb.inst_accesses            0                       # ITB inst accesses
system.cpu2.dtb.stage2_mmu.stage2_tlb.inst_hits            0                       # ITB inst hits
system.cpu2.dtb.stage2_mmu.stage2_tlb.inst_misses            0                       # ITB inst misses
system.cpu2.dtb.stage2_mmu.stage2_tlb.misses            0                       # DTB misses
system.cpu2.dtb.stage2_mmu.stage2_tlb.perms_faults            0                       # Number of TLB faults due to permissions restrictions
system.cpu2.dtb.stage2_mmu.stage2_tlb.prefetch_faults            0                       # Number of TLB faults due to prefetch
system.cpu2.dtb.stage2_mmu.stage2_tlb.read_accesses            0                       # DTB read accesses
system.cpu2.dtb.stage2_mmu.stage2_tlb.read_hits            0                       # DTB read hits
system.cpu2.dtb.stage2_mmu.stage2_tlb.read_misses            0                       # DTB read misses
system.cpu2.dtb.stage2_mmu.stage2_tlb.walker.walkRequestOrigin_Requested::Data            0                       # Table walker requests started/completed, data/inst
system.cpu2.dtb.stage2_mmu.stage2_tlb.walker.walkRequestOrigin_Requested::Inst            0                       # Table walker requests started/completed, data/inst
system.cpu2.dtb.stage2_mmu.stage2_tlb.walker.walkRequestOrigin_Requested::total            0                       # Table walker requests started/completed, data/inst
system.cpu2.dtb.stage2_mmu.stage2_tlb.walker.walkRequestOrigin_Completed::Data            0                       # Table walker requests started/completed, data/inst
system.cpu2.dtb.stage2_mmu.stage2_tlb.walker.walkRequestOrigin_Completed::Inst            0                       # Table walker requests started/completed, data/inst
system.cpu2.dtb.stage2_mmu.stage2_tlb.walker.walkRequestOrigin_Completed::total            0                       # Table walker requests started/completed, data/inst
system.cpu2.dtb.stage2_mmu.stage2_tlb.walker.walkRequestOrigin::total            0                       # Table walker requests started/completed, data/inst
system.cpu2.dtb.stage2_mmu.stage2_tlb.walker.walks            0                       # Table walker walks requested
system.cpu2.dtb.stage2_mmu.stage2_tlb.write_accesses            0                       # DTB write accesses
system.cpu2.dtb.stage2_mmu.stage2_tlb.write_hits            0                       # DTB write hits
system.cpu2.dtb.stage2_mmu.stage2_tlb.write_misses            0                       # DTB write misses
system.cpu2.dtb.walker.walkRequestOrigin_Requested::Data            0                       # Table walker requests started/completed, data/inst
system.cpu2.dtb.walker.walkRequestOrigin_Requested::Inst            0                       # Table walker requests started/completed, data/inst
system.cpu2.dtb.walker.walkRequestOrigin_Requested::total            0                       # Table walker requests started/completed, data/inst
system.cpu2.dtb.walker.walkRequestOrigin_Completed::Data            0                       # Table walker requests started/completed, data/inst
system.cpu2.dtb.walker.walkRequestOrigin_Completed::Inst            0                       # Table walker requests started/completed, data/inst
system.cpu2.dtb.walker.walkRequestOrigin_Completed::total            0                       # Table walker requests started/completed, data/inst
system.cpu2.dtb.walker.walkRequestOrigin::total            0                       # Table walker requests started/completed, data/inst
system.cpu2.dtb.walker.walks                        0                       # Table walker walks requested
system.cpu2.dtb.write_accesses                      0                       # DTB write accesses
system.cpu2.dtb.write_hits                          0                       # DTB write hits
system.cpu2.dtb.write_misses                        0                       # DTB write misses
system.cpu2.idle_fraction                    0.000000                       # Percentage of idle cycles
system.cpu2.itb.accesses                            1                       # DTB accesses
system.cpu2.itb.align_faults                        0                       # Number of TLB faults due to alignment restrictions
system.cpu2.itb.domain_faults                       0                       # Number of TLB faults due to domain restrictions
system.cpu2.itb.flush_entries                       1                       # Number of entries that have been flushed from TLB
system.cpu2.itb.flush_tlb                           2                       # Number of times complete TLB was flushed
system.cpu2.itb.flush_tlb_asid                      0                       # Number of times TLB was flushed by ASID
system.cpu2.itb.flush_tlb_mva                       0                       # Number of times TLB was flushed by MVA
system.cpu2.itb.flush_tlb_mva_asid                  0                       # Number of times TLB was flushed by MVA & ASID
system.cpu2.itb.hits                                0                       # DTB hits
system.cpu2.itb.inst_accesses                       1                       # ITB inst accesses
system.cpu2.itb.inst_hits                           0                       # ITB inst hits
system.cpu2.itb.inst_misses                         1                       # ITB inst misses
system.cpu2.itb.misses                              1                       # DTB misses
system.cpu2.itb.perms_faults                        0                       # Number of TLB faults due to permissions restrictions
system.cpu2.itb.prefetch_faults                     0                       # Number of TLB faults due to prefetch
system.cpu2.itb.read_accesses                       0                       # DTB read accesses
system.cpu2.itb.read_hits                           0                       # DTB read hits
system.cpu2.itb.read_misses                         0                       # DTB read misses
system.cpu2.itb.stage2_mmu.stage2_tlb.accesses            0                       # DTB accesses
system.cpu2.itb.stage2_mmu.stage2_tlb.align_faults            0                       # Number of TLB faults due to alignment restrictions
system.cpu2.itb.stage2_mmu.stage2_tlb.domain_faults            0                       # Number of TLB faults due to domain restrictions
system.cpu2.itb.stage2_mmu.stage2_tlb.flush_entries            0                       # Number of entries that have been flushed from TLB
system.cpu2.itb.stage2_mmu.stage2_tlb.flush_tlb            0                       # Number of times complete TLB was flushed
system.cpu2.itb.stage2_mmu.stage2_tlb.flush_tlb_asid            0                       # Number of times TLB was flushed by ASID
system.cpu2.itb.stage2_mmu.stage2_tlb.flush_tlb_mva            0                       # Number of times TLB was flushed by MVA
system.cpu2.itb.stage2_mmu.stage2_tlb.flush_tlb_mva_asid            0                       # Number of times TLB was flushed by MVA & ASID
system.cpu2.itb.stage2_mmu.stage2_tlb.hits            0                       # DTB hits
system.cpu2.itb.stage2_mmu.stage2_tlb.inst_accesses            0                       # ITB inst accesses
system.cpu2.itb.stage2_mmu.stage2_tlb.inst_hits            0                       # ITB inst hits
system.cpu2.itb.stage2_mmu.stage2_tlb.inst_misses            0                       # ITB inst misses
system.cpu2.itb.stage2_mmu.stage2_tlb.misses            0                       # DTB misses
system.cpu2.itb.stage2_mmu.stage2_tlb.perms_faults            0                       # Number of TLB faults due to permissions restrictions
system.cpu2.itb.stage2_mmu.stage2_tlb.prefetch_faults            0                       # Number of TLB faults due to prefetch
system.cpu2.itb.stage2_mmu.stage2_tlb.read_accesses            0                       # DTB read accesses
system.cpu2.itb.stage2_mmu.stage2_tlb.read_hits            0                       # DTB read hits
system.cpu2.itb.stage2_mmu.stage2_tlb.read_misses            0                       # DTB read misses
system.cpu2.itb.stage2_mmu.stage2_tlb.walker.walkRequestOrigin_Requested::Data            0                       # Table walker requests started/completed, data/inst
system.cpu2.itb.stage2_mmu.stage2_tlb.walker.walkRequestOrigin_Requested::Inst            0                       # Table walker requests started/completed, data/inst
system.cpu2.itb.stage2_mmu.stage2_tlb.walker.walkRequestOrigin_Requested::total            0                       # Table walker requests started/completed, data/inst
system.cpu2.itb.stage2_mmu.stage2_tlb.walker.walkRequestOrigin_Completed::Data            0                       # Table walker requests started/completed, data/inst
system.cpu2.itb.stage2_mmu.stage2_tlb.walker.walkRequestOrigin_Completed::Inst            0                       # Table walker requests started/completed, data/inst
system.cpu2.itb.stage2_mmu.stage2_tlb.walker.walkRequestOrigin_Completed::total            0                       # Table walker requests started/completed, data/inst
system.cpu2.itb.stage2_mmu.stage2_tlb.walker.walkRequestOrigin::total            0                       # Table walker requests started/completed, data/inst
system.cpu2.itb.stage2_mmu.stage2_tlb.walker.walks            0                       # Table walker walks requested
system.cpu2.itb.stage2_mmu.stage2_tlb.write_accesses            0                       # DTB write accesses
system.cpu2.itb.stage2_mmu.stage2_tlb.write_hits            0                       # DTB write hits
system.cpu2.itb.stage2_mmu.stage2_tlb.write_misses            0                       # DTB write misses
system.cpu2.itb.walker.walkPageSizes::4K            1    100.00%    100.00% # Table walker page sizes translated
system.cpu2.itb.walker.walkPageSizes::total            1                       # Table walker page sizes translated
system.cpu2.itb.walker.walkRequestOrigin_Requested::Data            0                       # Table walker requests started/completed, data/inst
system.cpu2.itb.walker.walkRequestOrigin_Requested::Inst            1                       # Table walker requests started/completed, data/inst
system.cpu2.itb.walker.walkRequestOrigin_Requested::total            1                       # Table walker requests started/completed, data/inst
system.cpu2.itb.walker.walkRequestOrigin_Completed::Data            0                       # Table walker requests started/completed, data/inst
system.cpu2.itb.walker.walkRequestOrigin_Completed::Inst            1                       # Table walker requests started/completed, data/inst
system.cpu2.itb.walker.walkRequestOrigin_Completed::total            1                       # Table walker requests started/completed, data/inst
system.cpu2.itb.walker.walkRequestOrigin::total            2                       # Table walker requests started/completed, data/inst
system.cpu2.itb.walker.walkWaitTime::samples            1                       # Table walker wait (enqueue to first request) latency
system.cpu2.itb.walker.walkWaitTime::0              1    100.00%    100.00% # Table walker wait (enqueue to first request) latency
system.cpu2.itb.walker.walkWaitTime::total            1                       # Table walker wait (enqueue to first request) latency
system.cpu2.itb.walker.walks                        1                       # Table walker walks requested
system.cpu2.itb.walker.walksLong                    1                       # Table walker walks initiated with long descriptors
system.cpu2.itb.walker.walksPending::samples  -1043953020                       # Table walker pending requests distribution
system.cpu2.itb.walker.walksPending::0    -1043953020    100.00%    100.00% # Table walker pending requests distribution
system.cpu2.itb.walker.walksPending::total  -1043953020                       # Table walker pending requests distribution
system.cpu2.itb.write_accesses                      0                       # DTB write accesses
system.cpu2.itb.write_hits                          0                       # DTB write hits
system.cpu2.itb.write_misses                        0                       # DTB write misses
system.cpu2.kern.inst.arm                           0                       # number of arm instructions executed
system.cpu2.kern.inst.quiesce                     355                       # number of quiesce instructions executed
system.cpu2.not_idle_fraction                1.000000                       # Percentage of non-idle cycles
system.cpu2.numCycles                      2102446070                       # number of cpu cycles simulated
system.cpu2.numWorkItemsCompleted                   0                       # number of work items this cpu completed
system.cpu2.numWorkItemsStarted                     0                       # number of work items this cpu started
system.cpu2.num_busy_cycles              2102446069.035801                       # Number of busy cycles
system.cpu2.num_conditional_control_insts            0                       # number of instructions that are conditional controls
system.cpu2.num_fp_alu_accesses                     0                       # Number of float alu accesses
system.cpu2.num_fp_insts                            0                       # number of float instructions
system.cpu2.num_fp_register_reads                   0                       # number of times the floating registers were read
system.cpu2.num_fp_register_writes                  0                       # number of times the floating registers were written
system.cpu2.num_func_calls                          1                       # number of times a function call or return occured
system.cpu2.num_idle_cycles                  0.964199                       # Number of idle cycles
system.cpu2.num_int_alu_accesses                    1                       # Number of integer alu accesses
system.cpu2.num_int_insts                           1                       # number of integer instructions
system.cpu2.num_int_register_reads                  1                       # number of times the integer registers were read
system.cpu2.num_int_register_writes                 0                       # number of times the integer registers were written
system.cpu2.num_load_insts                          0                       # Number of load instructions
system.cpu2.num_mem_refs                            0                       # number of memory refs
system.cpu2.num_store_insts                         0                       # Number of store instructions
system.cpu2.num_vec_alu_accesses                    0                       # Number of vector alu accesses
system.cpu2.num_vec_insts                           0                       # number of vector instructions
system.cpu2.num_vec_register_reads                  0                       # number of times the vector registers were read
system.cpu2.num_vec_register_writes                 0                       # number of times the vector registers were written
system.cpu2.op_class::No_OpClass                    0      0.00%      0.00% # Class of executed instruction
system.cpu2.op_class::IntAlu                        1    100.00%    100.00% # Class of executed instruction
system.cpu2.op_class::IntMult                       0      0.00%    100.00% # Class of executed instruction
system.cpu2.op_class::IntDiv                        0      0.00%    100.00% # Class of executed instruction
system.cpu2.op_class::FloatAdd                      0      0.00%    100.00% # Class of executed instruction
system.cpu2.op_class::FloatCmp                      0      0.00%    100.00% # Class of executed instruction
system.cpu2.op_class::FloatCvt                      0      0.00%    100.00% # Class of executed instruction
system.cpu2.op_class::FloatMult                     0      0.00%    100.00% # Class of executed instruction
system.cpu2.op_class::FloatMultAcc                  0      0.00%    100.00% # Class of executed instruction
system.cpu2.op_class::FloatDiv                      0      0.00%    100.00% # Class of executed instruction
system.cpu2.op_class::FloatMisc                     0      0.00%    100.00% # Class of executed instruction
system.cpu2.op_class::FloatSqrt                     0      0.00%    100.00% # Class of executed instruction
system.cpu2.op_class::SimdAdd                       0      0.00%    100.00% # Class of executed instruction
system.cpu2.op_class::SimdAddAcc                    0      0.00%    100.00% # Class of executed instruction
system.cpu2.op_class::SimdAlu                       0      0.00%    100.00% # Class of executed instruction
system.cpu2.op_class::SimdCmp                       0      0.00%    100.00% # Class of executed instruction
system.cpu2.op_class::SimdCvt                       0      0.00%    100.00% # Class of executed instruction
system.cpu2.op_class::SimdMisc                      0      0.00%    100.00% # Class of executed instruction
system.cpu2.op_class::SimdMult                      0      0.00%    100.00% # Class of executed instruction
system.cpu2.op_class::SimdMultAcc                   0      0.00%    100.00% # Class of executed instruction
system.cpu2.op_class::SimdShift                     0      0.00%    100.00% # Class of executed instruction
system.cpu2.op_class::SimdShiftAcc                  0      0.00%    100.00% # Class of executed instruction
system.cpu2.op_class::SimdDiv                       0      0.00%    100.00% # Class of executed instruction
system.cpu2.op_class::SimdSqrt                      0      0.00%    100.00% # Class of executed instruction
system.cpu2.op_class::SimdFloatAdd                  0      0.00%    100.00% # Class of executed instruction
system.cpu2.op_class::SimdFloatAlu                  0      0.00%    100.00% # Class of executed instruction
system.cpu2.op_class::SimdFloatCmp                  0      0.00%    100.00% # Class of executed instruction
system.cpu2.op_class::SimdFloatCvt                  0      0.00%    100.00% # Class of executed instruction
system.cpu2.op_class::SimdFloatDiv                  0      0.00%    100.00% # Class of executed instruction
system.cpu2.op_class::SimdFloatMisc                 0      0.00%    100.00% # Class of executed instruction
system.cpu2.op_class::SimdFloatMult                 0      0.00%    100.00% # Class of executed instruction
system.cpu2.op_class::SimdFloatMultAcc              0      0.00%    100.00% # Class of executed instruction
system.cpu2.op_class::SimdFloatSqrt                 0      0.00%    100.00% # Class of executed instruction
system.cpu2.op_class::SimdReduceAdd                 0      0.00%    100.00% # Class of executed instruction
system.cpu2.op_class::SimdReduceAlu                 0      0.00%    100.00% # Class of executed instruction
system.cpu2.op_class::SimdReduceCmp                 0      0.00%    100.00% # Class of executed instruction
system.cpu2.op_class::SimdFloatReduceAdd            0      0.00%    100.00% # Class of executed instruction
system.cpu2.op_class::SimdFloatReduceCmp            0      0.00%    100.00% # Class of executed instruction
system.cpu2.op_class::SimdAes                       0      0.00%    100.00% # Class of executed instruction
system.cpu2.op_class::SimdAesMix                    0      0.00%    100.00% # Class of executed instruction
system.cpu2.op_class::SimdSha1Hash                  0      0.00%    100.00% # Class of executed instruction
system.cpu2.op_class::SimdSha1Hash2                 0      0.00%    100.00% # Class of executed instruction
system.cpu2.op_class::SimdSha256Hash                0      0.00%    100.00% # Class of executed instruction
system.cpu2.op_class::SimdSha256Hash2               0      0.00%    100.00% # Class of executed instruction
system.cpu2.op_class::SimdShaSigma2                 0      0.00%    100.00% # Class of executed instruction
system.cpu2.op_class::SimdShaSigma3                 0      0.00%    100.00% # Class of executed instruction
system.cpu2.op_class::SimdPredAlu                   0      0.00%    100.00% # Class of executed instruction
system.cpu2.op_class::MemRead                       0      0.00%    100.00% # Class of executed instruction
system.cpu2.op_class::MemWrite                      0      0.00%    100.00% # Class of executed instruction
system.cpu2.op_class::FloatMemRead                  0      0.00%    100.00% # Class of executed instruction
system.cpu2.op_class::FloatMemWrite                 0      0.00%    100.00% # Class of executed instruction
system.cpu2.op_class::IprAccess                     0      0.00%    100.00% # Class of executed instruction
system.cpu2.op_class::InstPrefetch                  0      0.00%    100.00% # Class of executed instruction
system.cpu2.op_class::total                         1                       # Class of executed instruction
system.membus.snoop_filter.hit_multi_requests         9469                       # Number of requests hitting in the snoop filter with multiple (>1) holders of the requested data.
system.membus.snoop_filter.hit_multi_snoops            0                       # Number of snoops hitting in the snoop filter with multiple (>1) holders of the requested data.
system.membus.snoop_filter.hit_single_requests       184648                       # Number of requests hitting in the snoop filter with a single holder of the requested data.
system.membus.snoop_filter.hit_single_snoops            0                       # Number of snoops hitting in the snoop filter with a single holder of the requested data.
system.membus.snoop_filter.tot_requests        375481                       # Total number of requests made to the snoop filter.
system.membus.snoop_filter.tot_snoops               0                       # Total number of snoops made to the snoop filter.
system.pci_ide.disks0.dma_read_bytes           446464                       # Number of bytes transfered via DMA reads (not PRD).
system.pci_ide.disks0.dma_read_full_pages          109                       # Number of full page size DMA reads (not PRD).
system.pci_ide.disks0.dma_read_txs                109                       # Number of DMA read transactions (not PRD).
system.pci_ide.disks0.dma_write_bytes          835584                       # Number of bytes transfered via DMA writes.
system.pci_ide.disks0.dma_write_full_pages          204                       # Number of full page size DMA writes.
system.pci_ide.disks0.dma_write_txs               204                       # Number of DMA write transactions.
system.pci_ide.disks1.dma_read_bytes             4096                       # Number of bytes transfered via DMA reads (not PRD).
system.pci_ide.disks1.dma_read_full_pages            1                       # Number of full page size DMA reads (not PRD).
system.pci_ide.disks1.dma_read_txs                  1                       # Number of DMA read transactions (not PRD).
system.pci_ide.disks1.dma_write_bytes          341504                       # Number of bytes transfered via DMA writes.
system.pci_ide.disks1.dma_write_full_pages           83                       # Number of full page size DMA writes.
system.pci_ide.disks1.dma_write_txs                85                       # Number of DMA write transactions.
system.switch_cpus0.Branches                 67345636                       # Number of branches fetched
system.switch_cpus0.committedInsts          158236882                       # Number of instructions committed
system.switch_cpus0.committedOps            166734734                       # Number of ops (including micro ops) committed
system.switch_cpus0.dtb.accesses             45889593                       # DTB accesses
system.switch_cpus0.dtb.align_faults                0                       # Number of TLB faults due to alignment restrictions
system.switch_cpus0.dtb.domain_faults               0                       # Number of TLB faults due to domain restrictions
system.switch_cpus0.dtb.flush_entries             308                       # Number of entries that have been flushed from TLB
system.switch_cpus0.dtb.flush_tlb                   1                       # Number of times complete TLB was flushed
system.switch_cpus0.dtb.flush_tlb_asid             44                       # Number of times TLB was flushed by ASID
system.switch_cpus0.dtb.flush_tlb_mva               1                       # Number of times TLB was flushed by MVA
system.switch_cpus0.dtb.flush_tlb_mva_asid        11286                       # Number of times TLB was flushed by MVA & ASID
system.switch_cpus0.dtb.hits                 45826034                       # DTB hits
system.switch_cpus0.dtb.inst_accesses               0                       # ITB inst accesses
system.switch_cpus0.dtb.inst_hits                   0                       # ITB inst hits
[...]
system.mem_ctrls.wrPerTurnAround::64-67            83      1.98%     98.74% # Writes before turning the bus around for reads
system.mem_ctrls.wrPerTurnAround::68-71            12      0.29%     99.02% # Writes before turning the bus around for reads
system.mem_ctrls.wrPerTurnAround::72-75             9      0.21%     99.24% # Writes before turning the bus around for reads
system.mem_ctrls.wrPerTurnAround::76-79            21      0.50%     99.74% # Writes before turning the bus around for reads
system.mem_ctrls.wrPerTurnAround::80-83             4      0.10%     99.83% # Writes before turning the bus around for reads
system.mem_ctrls.wrPerTurnAround::128-131            4      0.10%     99.93% # Writes before turning the bus around for reads
system.mem_ctrls.wrPerTurnAround::132-135            1      0.02%     99.95% # Writes before turning the bus around for reads
system.mem_ctrls.wrPerTurnAround::140-143            1      0.02%     99.98% # Writes before turning the bus around for reads
system.mem_ctrls.wrPerTurnAround::160-163            1      0.02%    100.00% # Writes before turning the bus around for reads
system.mem_ctrls.wrPerTurnAround::total          4195                       # Writes before turning the bus around for reads
system.mem_ctrls.bytesReadDRAM                9424896                       # Total number of bytes read from DRAM
system.mem_ctrls.bytesReadWrQ                   12480                       # Total number of bytes read from write queue
system.mem_ctrls.bytesWritten                 5610048                       # Total number of bytes written to DRAM
system.mem_ctrls.bytesReadSys                 9437376                       # Total read bytes from the system interface side
system.mem_ctrls.bytesWrittenSys              5611904                       # Total written bytes from the system interface side
system.mem_ctrls.avgRdBW                         0.43                       # Average DRAM read bandwidth in MiByte/s
system.mem_ctrls.avgWrBW                         0.26                       # Average achieved write bandwidth in MiByte/s
system.mem_ctrls.avgRdBWSys                      0.43                       # Average system read bandwidth in MiByte/s
system.mem_ctrls.avgWrBWSys                      0.26                       # Average system write bandwidth in MiByte/s
system.mem_ctrls.peakBW                      12800.00                       # Theoretical peak bandwidth in MiByte/s
system.mem_ctrls.busUtil                         0.01                       # Data bus utilization in percentage
system.mem_ctrls.busUtilRead                     0.00                       # Data bus utilization in percentage for reads
system.mem_ctrls.busUtilWrite                    0.00                       # Data bus utilization in percentage for writes
system.mem_ctrls.totGap                  21805069438000                       # Total gap between requests
system.mem_ctrls.avgGap                   92730312.95                       # Average gap between requests
system.mem_ctrls.masterReadBytes::.switch_cpus0.inst       561728                       # Per-master bytes read from memory
system.mem_ctrls.masterReadBytes::.switch_cpus0.data      4167232                       # Per-master bytes read from memory
system.mem_ctrls.masterReadBytes::.switch_cpus0.dtb.walker        22784                       # Per-master bytes read from memory
system.mem_ctrls.masterReadBytes::.switch_cpus0.itb.walker        20864                       # Per-master bytes read from memory
system.mem_ctrls.masterReadBytes::.switch_cpus1.inst       475136                       # Per-master bytes read from memory
system.mem_ctrls.masterReadBytes::.switch_cpus1.data      1617920                       # Per-master bytes read from memory
system.mem_ctrls.masterReadBytes::.switch_cpus1.dtb.walker        19584                       # Per-master bytes read from memory
system.mem_ctrls.masterReadBytes::.switch_cpus1.itb.walker        13888                       # Per-master bytes read from memory
system.mem_ctrls.masterReadBytes::.switch_cpus2.inst       430784                       # Per-master bytes read from memory
system.mem_ctrls.masterReadBytes::.switch_cpus2.data      2058048                       # Per-master bytes read from memory
system.mem_ctrls.masterReadBytes::.switch_cpus2.dtb.walker        20160                       # Per-master bytes read from memory
system.mem_ctrls.masterReadBytes::.switch_cpus2.itb.walker        16768                       # Per-master bytes read from memory
system.mem_ctrls.masterWriteBytes::.writebacks      5610048                       # Per-master bytes write to memory
system.mem_ctrls.masterReadRate::.switch_cpus0.inst 25761.301503877694                       # Per-master bytes read from memory rate (Bytes/sec)
system.mem_ctrls.masterReadRate::.switch_cpus0.data 191112.638124870486                       # Per-master bytes read from memory rate (Bytes/sec)
system.mem_ctrls.masterReadRate::.switch_cpus0.dtb.walker 1044.892712245694                       # Per-master bytes read from memory rate (Bytes/sec)
system.mem_ctrls.masterReadRate::.switch_cpus0.itb.walker 956.839955595776                       # Per-master bytes read from memory rate (Bytes/sec)
system.mem_ctrls.masterReadRate::.switch_cpus1.inst 21790.122178966390                       # Per-master bytes read from memory rate (Bytes/sec)
system.mem_ctrls.masterReadRate::.switch_cpus1.data 74199.122936997621                       # Per-master bytes read from memory rate (Bytes/sec)
system.mem_ctrls.masterReadRate::.switch_cpus1.dtb.walker 898.138117829164                       # Per-master bytes read from memory rate (Bytes/sec)
system.mem_ctrls.masterReadRate::.switch_cpus1.itb.walker 636.914939767741                       # Per-master bytes read from memory rate (Bytes/sec)
system.mem_ctrls.masterReadRate::.switch_cpus2.inst 19756.103500353282                       # Per-master bytes read from memory rate (Bytes/sec)
system.mem_ctrls.masterReadRate::.switch_cpus2.data 94383.749853047178                       # Per-master bytes read from memory rate (Bytes/sec)
system.mem_ctrls.masterReadRate::.switch_cpus2.dtb.walker 924.553944824140                       # Per-master bytes read from memory rate (Bytes/sec)
system.mem_ctrls.masterReadRate::.switch_cpus2.itb.walker 768.994074742618                       # Per-master bytes read from memory rate (Bytes/sec)
system.mem_ctrls.masterWriteRate::.writebacks 257281.349655395577                       # Per-master bytes write to memory rate (Bytes/sec)
system.mem_ctrls.masterReadAccesses::.switch_cpus0.inst         8777                       # Per-master read serviced memory accesses
system.mem_ctrls.masterReadAccesses::.switch_cpus0.data        65273                       # Per-master read serviced memory accesses
system.mem_ctrls.masterReadAccesses::.switch_cpus0.dtb.walker          356                       # Per-master read serviced memory accesses
system.mem_ctrls.masterReadAccesses::.switch_cpus0.itb.walker          326                       # Per-master read serviced memory accesses
system.mem_ctrls.masterReadAccesses::.switch_cpus1.inst         7424                       # Per-master read serviced memory accesses
system.mem_ctrls.masterReadAccesses::.switch_cpus1.data        25293                       # Per-master read serviced memory accesses
system.mem_ctrls.masterReadAccesses::.switch_cpus1.dtb.walker          306                       # Per-master read serviced memory accesses
system.mem_ctrls.masterReadAccesses::.switch_cpus1.itb.walker          217                       # Per-master read serviced memory accesses
system.mem_ctrls.masterReadAccesses::.switch_cpus2.inst         6732                       # Per-master read serviced memory accesses
system.mem_ctrls.masterReadAccesses::.switch_cpus2.data        32177                       # Per-master read serviced memory accesses
system.mem_ctrls.masterReadAccesses::.switch_cpus2.dtb.walker          316                       # Per-master read serviced memory accesses
system.mem_ctrls.masterReadAccesses::.switch_cpus2.itb.walker          262                       # Per-master read serviced memory accesses
system.mem_ctrls.masterWriteAccesses::.writebacks        87686                       # Per-master write serviced memory accesses
system.mem_ctrls.masterReadTotalLat::.switch_cpus0.inst    322025250                       # Per-master read total memory access latency
system.mem_ctrls.masterReadTotalLat::.switch_cpus0.data   2402764250                       # Per-master read total memory access latency
system.mem_ctrls.masterReadTotalLat::.switch_cpus0.dtb.walker     12956000                       # Per-master read total memory access latency
system.mem_ctrls.masterReadTotalLat::.switch_cpus0.itb.walker     11955750                       # Per-master read total memory access latency
system.mem_ctrls.masterReadTotalLat::.switch_cpus1.inst    272549000                       # Per-master read total memory access latency
system.mem_ctrls.masterReadTotalLat::.switch_cpus1.data    932857750                       # Per-master read total memory access latency
system.mem_ctrls.masterReadTotalLat::.switch_cpus1.dtb.walker     10632500                       # Per-master read total memory access latency
system.mem_ctrls.masterReadTotalLat::.switch_cpus1.itb.walker      7668500                       # Per-master read total memory access latency
system.mem_ctrls.masterReadTotalLat::.switch_cpus2.inst    247151500                       # Per-master read total memory access latency
system.mem_ctrls.masterReadTotalLat::.switch_cpus2.data   1190039000                       # Per-master read total memory access latency
system.mem_ctrls.masterReadTotalLat::.switch_cpus2.dtb.walker     11606250                       # Per-master read total memory access latency
system.mem_ctrls.masterReadTotalLat::.switch_cpus2.itb.walker     10119750                       # Per-master read total memory access latency
system.mem_ctrls.masterWriteTotalLat::.writebacks 496701661408750                       # Per-master write total memory access latency
system.mem_ctrls.masterReadAvgLat::.switch_cpus0.inst     36689.67                       # Per-master read average memory access latency
system.mem_ctrls.masterReadAvgLat::.switch_cpus0.data     36811.00                       # Per-master read average memory access latency
system.mem_ctrls.masterReadAvgLat::.switch_cpus0.dtb.walker     36393.26                       # Per-master read average memory access latency
system.mem_ctrls.masterReadAvgLat::.switch_cpus0.itb.walker     36674.08                       # Per-master read average memory access latency
system.mem_ctrls.masterReadAvgLat::.switch_cpus1.inst     36711.88                       # Per-master read average memory access latency
system.mem_ctrls.masterReadAvgLat::.switch_cpus1.data     36882.05                       # Per-master read average memory access latency
system.mem_ctrls.masterReadAvgLat::.switch_cpus1.dtb.walker     34746.73                       # Per-master read average memory access latency
system.mem_ctrls.masterReadAvgLat::.switch_cpus1.itb.walker     35338.71                       # Per-master read average memory access latency
system.mem_ctrls.masterReadAvgLat::.switch_cpus2.inst     36712.94                       # Per-master read average memory access latency
system.mem_ctrls.masterReadAvgLat::.switch_cpus2.data     36984.15                       # Per-master read average memory access latency
system.mem_ctrls.masterReadAvgLat::.switch_cpus2.dtb.walker     36728.64                       # Per-master read average memory access latency
system.mem_ctrls.masterReadAvgLat::.switch_cpus2.itb.walker     38625.00                       # Per-master read average memory access latency
system.mem_ctrls.masterWriteAvgLat::.writebacks 5664549202.94                       # Per-master write average memory access latency
system.mem_ctrls.pageHitRate                    22.68                       # Row buffer hit rate, read and write combined
system.mem_ctrls.rank1.actEnergy            650325480                       # Energy for activate commands per rank (pJ)
system.mem_ctrls.rank1.preEnergy            345652395                       # Energy for precharge commands per rank (pJ)
system.mem_ctrls.rank1.readEnergy           523826100                       # Energy for read commands per rank (pJ)
system.mem_ctrls.rank1.writeEnergy          230243760                       # Energy for write commands per rank (pJ)
system.mem_ctrls.rank1.refreshEnergy     1721276578320.000244                       # Energy for refresh commands per rank (pJ)
system.mem_ctrls.rank1.actBackEnergy     447768951480                       # Energy for active background per rank (pJ)
system.mem_ctrls.rank1.preBackEnergy     7996090461120                       # Energy for precharge background per rank (pJ)
system.mem_ctrls.rank1.actPowerDownEnergy            0                       # Energy for active power-down per rank (pJ)
system.mem_ctrls.rank1.prePowerDownEnergy            0                       # Energy for precharge power-down per rank (pJ)
system.mem_ctrls.rank1.selfRefreshEnergy            0                       # Energy for self refresh per rank (pJ)
system.mem_ctrls.rank1.totalEnergy       10166886038655                       # Total energy per rank (pJ)
system.mem_ctrls.rank1.averagePower        466.261637                       # Core power per rank (mW)
system.mem_ctrls.rank1.totalIdleTime                0                       # Total Idle time Per DRAM Rank
system.mem_ctrls.rank1.memoryStateTime::IDLE 20783591420748                       # Time in different power states
system.mem_ctrls.rank1.memoryStateTime::REF 728120380000                       # Time in different power states
system.mem_ctrls.rank1.memoryStateTime::SREF            0                       # Time in different power states
system.mem_ctrls.rank1.memoryStateTime::PRE_PDN            0                       # Time in different power states
system.mem_ctrls.rank1.memoryStateTime::ACT 293397683252                       # Time in different power states
system.mem_ctrls.rank1.memoryStateTime::ACT_PDN            0                       # Time in different power states
system.mem_ctrls.rank0.actEnergy            646477020                       # Energy for activate commands per rank (pJ)
system.mem_ctrls.rank0.preEnergy            343610685                       # Energy for precharge commands per rank (pJ)
system.mem_ctrls.rank0.readEnergy           527638860                       # Energy for read commands per rank (pJ)
system.mem_ctrls.rank0.writeEnergy          227304900                       # Energy for write commands per rank (pJ)
system.mem_ctrls.rank0.refreshEnergy     1721276578320.000244                       # Energy for refresh commands per rank (pJ)
system.mem_ctrls.rank0.actBackEnergy     448482704910                       # Energy for active background per rank (pJ)
system.mem_ctrls.rank0.preBackEnergy     7995489405600                       # Energy for precharge background per rank (pJ)
system.mem_ctrls.rank0.actPowerDownEnergy            0                       # Energy for active power-down per rank (pJ)
system.mem_ctrls.rank0.prePowerDownEnergy            0                       # Energy for precharge power-down per rank (pJ)
system.mem_ctrls.rank0.selfRefreshEnergy            0                       # Energy for self refresh per rank (pJ)
system.mem_ctrls.rank0.totalEnergy       10166993720295                       # Total energy per rank (pJ)
system.mem_ctrls.rank0.averagePower        466.266575                       # Core power per rank (mW)
system.mem_ctrls.rank0.totalIdleTime                0                       # Total Idle time Per DRAM Rank
system.mem_ctrls.rank0.memoryStateTime::IDLE 20782019974750                       # Time in different power states
system.mem_ctrls.rank0.memoryStateTime::REF 728120380000                       # Time in different power states
system.mem_ctrls.rank0.memoryStateTime::SREF            0                       # Time in different power states
system.mem_ctrls.rank0.memoryStateTime::PRE_PDN            0                       # Time in different power states
system.mem_ctrls.rank0.memoryStateTime::ACT 294969129250                       # Time in different power states
system.mem_ctrls.rank0.memoryStateTime::ACT_PDN            0                       # Time in different power states
system.iobus.pwrStateResidencyTicks::UNDEFINED 22856332518500                       # Cumulative time (in ticks) in various power states
system.iobus.trans_dist::ReadReq                 9767                       # Transaction distribution
system.iobus.trans_dist::ReadResp                9767                       # Transaction distribution
system.iobus.trans_dist::WriteReq               20855                       # Transaction distribution
system.iobus.trans_dist::WriteResp              20855                       # Transaction distribution
system.iobus.pkt_count_system.bridge.master::system.realview.uart.pio          988                       # Packet count per connected master and slave (bytes)
system.iobus.pkt_count_system.bridge.master::system.pci_ide.pio         8840                       # Packet count per connected master and slave (bytes)
system.iobus.pkt_count_system.bridge.master::total         9828                       # Packet count per connected master and slave (bytes)
system.iobus.pkt_count_system.pci_ide.dma::system.iocache.cpu_side        51416                       # Packet count per connected master and slave (bytes)
system.iobus.pkt_count_system.pci_ide.dma::total        51416                       # Packet count per connected master and slave (bytes)
system.iobus.pkt_count::total                   61244                       # Packet count per connected master and slave (bytes)
system.iobus.pkt_size_system.bridge.master::system.realview.uart.pio          988                       # Cumulative packet size per connected master and slave (bytes)
system.iobus.pkt_size_system.bridge.master::system.pci_ide.pio         4930                       # Cumulative packet size per connected master and slave (bytes)
system.iobus.pkt_size_system.bridge.master::total         5918                       # Cumulative packet size per connected master and slave (bytes)
system.iobus.pkt_size_system.pci_ide.dma::system.iocache.cpu_side      1629856                       # Cumulative packet size per connected master and slave (bytes)
system.iobus.pkt_size_system.pci_ide.dma::total      1629856                       # Cumulative packet size per connected master and slave (bytes)
system.iobus.pkt_size::total                  1635774                       # Cumulative packet size per connected master and slave (bytes)
system.iobus.reqLayer1.occupancy               871000                       # Layer occupancy (ticks)
system.iobus.reqLayer1.utilization                0.0                       # Layer utilization (%)
system.iobus.respLayer1.occupancy            54144000                       # Layer occupancy (ticks)
system.iobus.respLayer1.utilization               0.0                       # Layer utilization (%)
system.iobus.respLayer0.occupancy             7365000                       # Layer occupancy (ticks)
system.iobus.respLayer0.utilization               0.0                       # Layer utilization (%)
system.iobus.reqLayer10.occupancy             7832500                       # Layer occupancy (ticks)
system.iobus.reqLayer10.utilization               0.0                       # Layer utilization (%)
system.iobus.reqLayer11.occupancy           109293319                       # Layer occupancy (ticks)
system.iobus.reqLayer11.utilization               0.0                       # Layer utilization (%)

---------- End Simulation Statistics   ----------
