
---------- Begin Simulation Statistics ----------
final_tick                               7072294088268                       # Number of ticks from beginning of simulation (restored from checkpoints and never reset)
host_inst_rate                                 515748                       # Simulator instruction rate (inst/s)
host_mem_usage                               20299648                       # Number of bytes of host memory used
host_op_rate                                   603399                       # Simulator op (including micro ops) rate (op/s)
host_seconds                                  3584.70                       # Real time elapsed on the host
host_tick_rate                             1972910459                       # Simulator tick rate (ticks/s)
sim_freq                                 1000000000000                       # Frequency of simulated ticks
sim_insts                                  1848803648                       # Number of instructions simulated
sim_ops                                    2163006706                       # Number of ops (including micro ops) simulated
sim_seconds                                  7.072294                       # Number of seconds simulated
sim_ticks                                7072294088268                       # Number of ticks simulated
system.cpu00.Branches                       114632804                       # Number of branches fetched
system.cpu00.committedInsts                 491108225                       # Number of instructions committed
system.cpu00.committedOps                   562028592                       # Number of ops (including micro ops) committed
system.cpu00.dtb.accesses                   173023585                       # DTB accesses
system.cpu00.dtb.align_faults                       0                       # Number of TLB faults due to alignment restrictions
system.cpu00.dtb.domain_faults                      0                       # Number of TLB faults due to domain restrictions
system.cpu00.dtb.flush_entries                   1197                       # Number of entries that have been flushed from TLB
system.cpu00.dtb.flush_tlb                         15                       # Number of times complete TLB was flushed
system.cpu00.dtb.flush_tlb_asid                   492                       # Number of times TLB was flushed by ASID
system.cpu00.dtb.flush_tlb_mva                   1467                       # Number of times TLB was flushed by MVA
system.cpu00.dtb.flush_tlb_mva_asid             58314                       # Number of times TLB was flushed by MVA & ASID
system.cpu00.dtb.hits                       173000492                       # DTB hits
system.cpu00.dtb.inst_accesses                      0                       # ITB inst accesses
system.cpu00.dtb.inst_hits                          0                       # ITB inst hits
system.cpu00.dtb.inst_misses                        0                       # ITB inst misses
system.cpu00.dtb.misses                         23093                       # DTB misses
system.cpu00.dtb.perms_faults                      70                       # Number of TLB faults due to permissions restrictions
system.cpu00.dtb.prefetch_faults                 3780                       # Number of TLB faults due to prefetch
system.cpu00.dtb.read_accesses               81848157                       # DTB read accesses
system.cpu00.dtb.read_hits                   81828329                       # DTB read hits
system.cpu00.dtb.read_misses                    19828                       # DTB read misses
system.cpu00.dtb.stage2_mmu.stage2_tlb.accesses            0                       # DTB accesses
system.cpu00.dtb.stage2_mmu.stage2_tlb.align_faults            0                       # Number of TLB faults due to alignment restrictions
system.cpu00.dtb.stage2_mmu.stage2_tlb.domain_faults            0                       # Number of TLB faults due to domain restrictions
system.cpu00.dtb.stage2_mmu.stage2_tlb.flush_entries            0                       # Number of entries that have been flushed from TLB
system.cpu00.dtb.stage2_mmu.stage2_tlb.flush_tlb            0                       # Number of times complete TLB was flushed
system.cpu00.dtb.stage2_mmu.stage2_tlb.flush_tlb_asid            0                       # Number of times TLB was flushed by ASID
system.cpu00.dtb.stage2_mmu.stage2_tlb.flush_tlb_mva            0                       # Number of times TLB was flushed by MVA
system.cpu00.dtb.stage2_mmu.stage2_tlb.flush_tlb_mva_asid            0                       # Number of times TLB was flushed by MVA & ASID
system.cpu00.dtb.stage2_mmu.stage2_tlb.hits            0                       # DTB hits
system.cpu00.dtb.stage2_mmu.stage2_tlb.inst_accesses            0                       # ITB inst accesses
system.cpu00.dtb.stage2_mmu.stage2_tlb.inst_hits            0                       # ITB inst hits
system.cpu00.dtb.stage2_mmu.stage2_tlb.inst_misses            0                       # ITB inst misses
system.cpu00.dtb.stage2_mmu.stage2_tlb.misses            0                       # DTB misses
system.cpu00.dtb.stage2_mmu.stage2_tlb.perms_faults            0                       # Number of TLB faults due to permissions restrictions
system.cpu00.dtb.stage2_mmu.stage2_tlb.prefetch_faults            0                       # Number of TLB faults due to prefetch
system.cpu00.dtb.stage2_mmu.stage2_tlb.read_accesses            0                       # DTB read accesses
system.cpu00.dtb.stage2_mmu.stage2_tlb.read_hits            0                       # DTB read hits
system.cpu00.dtb.stage2_mmu.stage2_tlb.read_misses            0                       # DTB read misses
system.cpu00.dtb.stage2_mmu.stage2_tlb.walker.walkRequestOrigin_Requested::Data            0                       # Table walker requests started/completed, data/inst
system.cpu00.dtb.stage2_mmu.stage2_tlb.walker.walkRequestOrigin_Requested::Inst            0                       # Table walker requests started/completed, data/inst
system.cpu00.dtb.stage2_mmu.stage2_tlb.walker.walkRequestOrigin_Requested::total            0                       # Table walker requests started/completed, data/inst
system.cpu00.dtb.stage2_mmu.stage2_tlb.walker.walkRequestOrigin_Completed::Data            0                       # Table walker requests started/completed, data/inst
system.cpu00.dtb.stage2_mmu.stage2_tlb.walker.walkRequestOrigin_Completed::Inst            0                       # Table walker requests started/completed, data/inst
system.cpu00.dtb.stage2_mmu.stage2_tlb.walker.walkRequestOrigin_Completed::total            0                       # Table walker requests started/completed, data/inst
system.cpu00.dtb.stage2_mmu.stage2_tlb.walker.walkRequestOrigin::total            0                       # Table walker requests started/completed, data/inst
system.cpu00.dtb.stage2_mmu.stage2_tlb.walker.walks            0                       # Table walker walks requested
system.cpu00.dtb.stage2_mmu.stage2_tlb.write_accesses            0                       # DTB write accesses
system.cpu00.dtb.stage2_mmu.stage2_tlb.write_hits            0                       # DTB write hits
system.cpu00.dtb.stage2_mmu.stage2_tlb.write_misses            0                       # DTB write misses
system.cpu00.dtb.walker.walkPageSizes::4K        22270     97.35%     97.35% # Table walker page sizes translated
system.cpu00.dtb.walker.walkPageSizes::2M          557      2.43%     99.79% # Table walker page sizes translated
system.cpu00.dtb.walker.walkPageSizes::1G           49      0.21%    100.00% # Table walker page sizes translated
system.cpu00.dtb.walker.walkPageSizes::total        22876                       # Table walker page sizes translated
system.cpu00.dtb.walker.walkRequestOrigin_Requested::Data        23093                       # Table walker requests started/completed, data/inst
system.cpu00.dtb.walker.walkRequestOrigin_Requested::Inst            0                       # Table walker requests started/completed, data/inst
system.cpu00.dtb.walker.walkRequestOrigin_Requested::total        23093                       # Table walker requests started/completed, data/inst
system.cpu00.dtb.walker.walkRequestOrigin_Completed::Data        22876                       # Table walker requests started/completed, data/inst
system.cpu00.dtb.walker.walkRequestOrigin_Completed::Inst            0                       # Table walker requests started/completed, data/inst
system.cpu00.dtb.walker.walkRequestOrigin_Completed::total        22876                       # Table walker requests started/completed, data/inst
system.cpu00.dtb.walker.walkRequestOrigin::total        45969                       # Table walker requests started/completed, data/inst
system.cpu00.dtb.walker.walkWaitTime::samples        23093                       # Table walker wait (enqueue to first request) latency
system.cpu00.dtb.walker.walkWaitTime::0         23093    100.00%    100.00% # Table walker wait (enqueue to first request) latency
system.cpu00.dtb.walker.walkWaitTime::total        23093                       # Table walker wait (enqueue to first request) latency
system.cpu00.dtb.walker.walks                   23093                       # Table walker walks requested
system.cpu00.dtb.walker.walksLong               23093                       # Table walker walks initiated with long descriptors
system.cpu00.dtb.walker.walksPending::samples     48759456                       # Table walker pending requests distribution
system.cpu00.dtb.walker.walksPending::0      48759456    100.00%    100.00% # Table walker pending requests distribution
system.cpu00.dtb.walker.walksPending::total     48759456                       # Table walker pending requests distribution
system.cpu00.dtb.write_accesses              91175428                       # DTB write accesses
system.cpu00.dtb.write_hits                  91172163                       # DTB write hits
system.cpu00.dtb.write_misses                    3265                       # DTB write misses
system.cpu00.idle_fraction                   0.558471                       # Percentage of idle cycles
system.cpu00.itb.accesses                   491016030                       # DTB accesses
system.cpu00.itb.align_faults                       0                       # Number of TLB faults due to alignment restrictions
system.cpu00.itb.domain_faults                      0                       # Number of TLB faults due to domain restrictions
system.cpu00.itb.flush_entries                    414                       # Number of entries that have been flushed from TLB
system.cpu00.itb.flush_tlb                         15                       # Number of times complete TLB was flushed
system.cpu00.itb.flush_tlb_asid                   492                       # Number of times TLB was flushed by ASID
system.cpu00.itb.flush_tlb_mva                   1467                       # Number of times TLB was flushed by MVA
system.cpu00.itb.flush_tlb_mva_asid             58314                       # Number of times TLB was flushed by MVA & ASID
system.cpu00.itb.hits                       490909417                       # DTB hits
system.cpu00.itb.inst_accesses              491016030                       # ITB inst accesses
system.cpu00.itb.inst_hits                  490909417                       # ITB inst hits
system.cpu00.itb.inst_misses                   106613                       # ITB inst misses
system.cpu00.itb.misses                        106613                       # DTB misses
system.cpu00.itb.perms_faults                       0                       # Number of TLB faults due to permissions restrictions
system.cpu00.itb.prefetch_faults                    0                       # Number of TLB faults due to prefetch
system.cpu00.itb.read_accesses                      0                       # DTB read accesses
system.cpu00.itb.read_hits                          0                       # DTB read hits
system.cpu00.itb.read_misses                        0                       # DTB read misses
system.cpu00.itb.stage2_mmu.stage2_tlb.accesses            0                       # DTB accesses
system.cpu00.itb.stage2_mmu.stage2_tlb.align_faults            0                       # Number of TLB faults due to alignment restrictions
system.cpu00.itb.stage2_mmu.stage2_tlb.domain_faults            0                       # Number of TLB faults due to domain restrictions
system.cpu00.itb.stage2_mmu.stage2_tlb.flush_entries            0                       # Number of entries that have been flushed from TLB
system.cpu00.itb.stage2_mmu.stage2_tlb.flush_tlb            0                       # Number of times complete TLB was flushed
system.cpu00.itb.stage2_mmu.stage2_tlb.flush_tlb_asid            0                       # Number of times TLB was flushed by ASID
system.cpu00.itb.stage2_mmu.stage2_tlb.flush_tlb_mva            0                       # Number of times TLB was flushed by MVA
system.cpu00.itb.stage2_mmu.stage2_tlb.flush_tlb_mva_asid            0                       # Number of times TLB was flushed by MVA & ASID
system.cpu00.itb.stage2_mmu.stage2_tlb.hits            0                       # DTB hits
system.cpu00.itb.stage2_mmu.stage2_tlb.inst_accesses            0                       # ITB inst accesses
system.cpu00.itb.stage2_mmu.stage2_tlb.inst_hits            0                       # ITB inst hits
system.cpu00.itb.stage2_mmu.stage2_tlb.inst_misses            0                       # ITB inst misses
system.cpu00.itb.stage2_mmu.stage2_tlb.misses            0                       # DTB misses
system.cpu00.itb.stage2_mmu.stage2_tlb.perms_faults            0                       # Number of TLB faults due to permissions restrictions
system.cpu00.itb.stage2_mmu.stage2_tlb.prefetch_faults            0                       # Number of TLB faults due to prefetch
system.cpu00.itb.stage2_mmu.stage2_tlb.read_accesses            0                       # DTB read accesses
system.cpu00.itb.stage2_mmu.stage2_tlb.read_hits            0                       # DTB read hits
system.cpu00.itb.stage2_mmu.stage2_tlb.read_misses            0                       # DTB read misses
system.cpu00.itb.stage2_mmu.stage2_tlb.walker.walkRequestOrigin_Requested::Data            0                       # Table walker requests started/completed, data/inst
system.cpu00.itb.stage2_mmu.stage2_tlb.walker.walkRequestOrigin_Requested::Inst            0                       # Table walker requests started/completed, data/inst
system.cpu00.itb.stage2_mmu.stage2_tlb.walker.walkRequestOrigin_Requested::total            0                       # Table walker requests started/completed, data/inst
system.cpu00.itb.stage2_mmu.stage2_tlb.walker.walkRequestOrigin_Completed::Data            0                       # Table walker requests started/completed, data/inst
system.cpu00.itb.stage2_mmu.stage2_tlb.walker.walkRequestOrigin_Completed::Inst            0                       # Table walker requests started/completed, data/inst
system.cpu00.itb.stage2_mmu.stage2_tlb.walker.walkRequestOrigin_Completed::total            0                       # Table walker requests started/completed, data/inst
system.cpu00.itb.stage2_mmu.stage2_tlb.walker.walkRequestOrigin::total            0                       # Table walker requests started/completed, data/inst
system.cpu00.itb.stage2_mmu.stage2_tlb.walker.walks            0                       # Table walker walks requested
system.cpu00.itb.stage2_mmu.stage2_tlb.write_accesses            0                       # DTB write accesses
system.cpu00.itb.stage2_mmu.stage2_tlb.write_hits            0                       # DTB write hits
system.cpu00.itb.stage2_mmu.stage2_tlb.write_misses            0                       # DTB write misses
system.cpu00.itb.walker.walkPageSizes::4K       105677     99.17%     99.17% # Table walker page sizes translated
system.cpu00.itb.walker.walkPageSizes::2M          885      0.83%    100.00% # Table walker page sizes translated
system.cpu00.itb.walker.walkPageSizes::total       106562                       # Table walker page sizes translated
system.cpu00.itb.walker.walkRequestOrigin_Requested::Data            0                       # Table walker requests started/completed, data/inst
system.cpu00.itb.walker.walkRequestOrigin_Requested::Inst       106613                       # Table walker requests started/completed, data/inst
system.cpu00.itb.walker.walkRequestOrigin_Requested::total       106613                       # Table walker requests started/completed, data/inst
system.cpu00.itb.walker.walkRequestOrigin_Completed::Data            0                       # Table walker requests started/completed, data/inst
system.cpu00.itb.walker.walkRequestOrigin_Completed::Inst       106562                       # Table walker requests started/completed, data/inst
system.cpu00.itb.walker.walkRequestOrigin_Completed::total       106562                       # Table walker requests started/completed, data/inst
system.cpu00.itb.walker.walkRequestOrigin::total       213175                       # Table walker requests started/completed, data/inst
system.cpu00.itb.walker.walkWaitTime::samples       106613                       # Table walker wait (enqueue to first request) latency
system.cpu00.itb.walker.walkWaitTime::0        106613    100.00%    100.00% # Table walker wait (enqueue to first request) latency
system.cpu00.itb.walker.walkWaitTime::total       106613                       # Table walker wait (enqueue to first request) latency
system.cpu00.itb.walker.walks                  106613                       # Table walker walks requested
system.cpu00.itb.walker.walksLong              106613                       # Table walker walks initiated with long descriptors
system.cpu00.itb.walker.walksPending::samples     48731676                       # Table walker pending requests distribution
system.cpu00.itb.walker.walksPending::0      48731676    100.00%    100.00% # Table walker pending requests distribution
system.cpu00.itb.walker.walksPending::total     48731676                       # Table walker pending requests distribution
system.cpu00.itb.write_accesses                     0                       # DTB write accesses
system.cpu00.itb.write_hits                         0                       # DTB write hits
system.cpu00.itb.write_misses                       0                       # DTB write misses
system.cpu00.kern.inst.arm                          0                       # number of arm instructions executed
system.cpu00.kern.inst.quiesce                   3294                       # number of quiesce instructions executed
system.cpu00.not_idle_fraction               0.441529                       # Percentage of non-idle cycles
system.cpu00.numCycles                     1266551830                       # number of cpu cycles simulated
system.cpu00.numWorkItemsCompleted                  0                       # number of work items this cpu completed
system.cpu00.numWorkItemsStarted                    0                       # number of work items this cpu started
system.cpu00.num_busy_cycles             559219844.660754                       # Number of busy cycles
system.cpu00.num_cc_register_reads          140346095                       # number of times the CC registers were read
system.cpu00.num_cc_register_writes         139555959                       # number of times the CC registers were written
system.cpu00.num_conditional_control_insts     69645567                       # number of instructions that are conditional controls
system.cpu00.num_fp_alu_accesses                    0                       # Number of float alu accesses
system.cpu00.num_fp_insts                           0                       # number of float instructions
system.cpu00.num_fp_register_reads                  0                       # number of times the floating registers were read
system.cpu00.num_fp_register_writes                 0                       # number of times the floating registers were written
system.cpu00.num_func_calls                  26646108                       # number of times a function call or return occured
system.cpu00.num_idle_cycles             707331985.339246                       # Number of idle cycles
system.cpu00.num_int_alu_accesses           498657446                       # Number of integer alu accesses
system.cpu00.num_int_insts                  498657446                       # number of integer instructions
system.cpu00.num_int_register_reads         685846466                       # number of times the integer registers were read
system.cpu00.num_int_register_writes        376204962                       # number of times the integer registers were written
system.cpu00.num_load_insts                  81754848                       # Number of load instructions
system.cpu00.num_mem_refs                   172948406                       # number of memory refs
system.cpu00.num_store_insts                 91193558                       # Number of store instructions
system.cpu00.num_vec_alu_accesses                5923                       # Number of vector alu accesses
system.cpu00.num_vec_insts                       5923                       # number of vector instructions
system.cpu00.num_vec_register_reads              4960                       # number of times the vector registers were read
system.cpu00.num_vec_register_writes             1051                       # number of times the vector registers were written
system.cpu00.op_class::No_OpClass                2219      0.00%      0.00% # Class of executed instruction
system.cpu00.op_class::IntAlu               384366828     68.39%     68.39% # Class of executed instruction
system.cpu00.op_class::IntMult                4617440      0.82%     69.21% # Class of executed instruction
system.cpu00.op_class::IntDiv                   93928      0.02%     69.23% # Class of executed instruction
system.cpu00.op_class::FloatAdd                     0      0.00%     69.23% # Class of executed instruction
system.cpu00.op_class::FloatCmp                     0      0.00%     69.23% # Class of executed instruction
system.cpu00.op_class::FloatCvt                     0      0.00%     69.23% # Class of executed instruction
system.cpu00.op_class::FloatMult                    0      0.00%     69.23% # Class of executed instruction
system.cpu00.op_class::FloatMultAcc                 0      0.00%     69.23% # Class of executed instruction
system.cpu00.op_class::FloatDiv                     0      0.00%     69.23% # Class of executed instruction
system.cpu00.op_class::FloatMisc                  325      0.00%     69.23% # Class of executed instruction
system.cpu00.op_class::FloatSqrt                    0      0.00%     69.23% # Class of executed instruction
system.cpu00.op_class::SimdAdd                      0      0.00%     69.23% # Class of executed instruction
system.cpu00.op_class::SimdAddAcc                   0      0.00%     69.23% # Class of executed instruction
system.cpu00.op_class::SimdAlu                      0      0.00%     69.23% # Class of executed instruction
system.cpu00.op_class::SimdCmp                      0      0.00%     69.23% # Class of executed instruction
system.cpu00.op_class::SimdCvt                      0      0.00%     69.23% # Class of executed instruction
system.cpu00.op_class::SimdMisc                     0      0.00%     69.23% # Class of executed instruction
system.cpu00.op_class::SimdMult                     0      0.00%     69.23% # Class of executed instruction
system.cpu00.op_class::SimdMultAcc                  0      0.00%     69.23% # Class of executed instruction
system.cpu00.op_class::SimdShift                    0      0.00%     69.23% # Class of executed instruction
system.cpu00.op_class::SimdShiftAcc                 0      0.00%     69.23% # Class of executed instruction
system.cpu00.op_class::SimdDiv                      0      0.00%     69.23% # Class of executed instruction
system.cpu00.op_class::SimdSqrt                     0      0.00%     69.23% # Class of executed instruction
system.cpu00.op_class::SimdFloatAdd                 0      0.00%     69.23% # Class of executed instruction
system.cpu00.op_class::SimdFloatAlu                 0      0.00%     69.23% # Class of executed instruction
system.cpu00.op_class::SimdFloatCmp                 0      0.00%     69.23% # Class of executed instruction
system.cpu00.op_class::SimdFloatCvt                 0      0.00%     69.23% # Class of executed instruction
system.cpu00.op_class::SimdFloatDiv                 0      0.00%     69.23% # Class of executed instruction
system.cpu00.op_class::SimdFloatMisc                0      0.00%     69.23% # Class of executed instruction
system.cpu00.op_class::SimdFloatMult                0      0.00%     69.23% # Class of executed instruction
system.cpu00.op_class::SimdFloatMultAcc             0      0.00%     69.23% # Class of executed instruction
system.cpu00.op_class::SimdFloatSqrt                0      0.00%     69.23% # Class of executed instruction
system.cpu00.op_class::SimdReduceAdd                0      0.00%     69.23% # Class of executed instruction
system.cpu00.op_class::SimdReduceAlu                0      0.00%     69.23% # Class of executed instruction
system.cpu00.op_class::SimdReduceCmp                0      0.00%     69.23% # Class of executed instruction
system.cpu00.op_class::SimdFloatReduceAdd            0      0.00%     69.23% # Class of executed instruction
system.cpu00.op_class::SimdFloatReduceCmp            0      0.00%     69.23% # Class of executed instruction
system.cpu00.op_class::SimdAes                      0      0.00%     69.23% # Class of executed instruction
system.cpu00.op_class::SimdAesMix                   0      0.00%     69.23% # Class of executed instruction
system.cpu00.op_class::SimdSha1Hash                 0      0.00%     69.23% # Class of executed instruction
system.cpu00.op_class::SimdSha1Hash2                0      0.00%     69.23% # Class of executed instruction
system.cpu00.op_class::SimdSha256Hash               0      0.00%     69.23% # Class of executed instruction
system.cpu00.op_class::SimdSha256Hash2              0      0.00%     69.23% # Class of executed instruction
system.cpu00.op_class::SimdShaSigma2                0      0.00%     69.23% # Class of executed instruction
system.cpu00.op_class::SimdShaSigma3                0      0.00%     69.23% # Class of executed instruction
system.cpu00.op_class::SimdPredAlu                  0      0.00%     69.23% # Class of executed instruction
system.cpu00.op_class::MemRead               81754848     14.55%     83.77% # Class of executed instruction
system.cpu00.op_class::MemWrite              91193558     16.23%    100.00% # Class of executed instruction
system.cpu00.op_class::FloatMemRead                 0      0.00%    100.00% # Class of executed instruction
system.cpu00.op_class::FloatMemWrite                0      0.00%    100.00% # Class of executed instruction
system.cpu00.op_class::IprAccess                    0      0.00%    100.00% # Class of executed instruction
system.cpu00.op_class::InstPrefetch                 0      0.00%    100.00% # Class of executed instruction
system.cpu00.op_class::total                562029146                       # Class of executed instruction
system.cpu01.Branches                         2524069                       # Number of branches fetched
system.cpu01.committedInsts                  11200033                       # Number of instructions committed
system.cpu01.committedOps                    13353985                       # Number of ops (including micro ops) committed
system.cpu01.dtb.accesses                     4431230                       # DTB accesses
system.cpu01.dtb.align_faults                       0                       # Number of TLB faults due to alignment restrictions
system.cpu01.dtb.domain_faults                      0                       # Number of TLB faults due to domain restrictions
system.cpu01.dtb.flush_entries                    554                       # Number of entries that have been flushed from TLB
system.cpu01.dtb.flush_tlb                          8                       # Number of times complete TLB was flushed
system.cpu01.dtb.flush_tlb_asid                   492                       # Number of times TLB was flushed by ASID
system.cpu01.dtb.flush_tlb_mva                   1467                       # Number of times TLB was flushed by MVA
system.cpu01.dtb.flush_tlb_mva_asid             58314                       # Number of times TLB was flushed by MVA & ASID
system.cpu01.dtb.hits                         4430082                       # DTB hits
system.cpu01.dtb.inst_accesses                      0                       # ITB inst accesses
system.cpu01.dtb.inst_hits                          0                       # ITB inst hits
system.cpu01.dtb.inst_misses                        0                       # ITB inst misses
system.cpu01.dtb.misses                          1148                       # DTB misses
system.cpu01.dtb.perms_faults                      58                       # Number of TLB faults due to permissions restrictions
system.cpu01.dtb.prefetch_faults                  279                       # Number of TLB faults due to prefetch
system.cpu01.dtb.read_accesses                2685142                       # DTB read accesses
system.cpu01.dtb.read_hits                    2684165                       # DTB read hits
system.cpu01.dtb.read_misses                      977                       # DTB read misses
system.cpu01.dtb.stage2_mmu.stage2_tlb.accesses            0                       # DTB accesses
system.cpu01.dtb.stage2_mmu.stage2_tlb.align_faults            0                       # Number of TLB faults due to alignment restrictions
system.cpu01.dtb.stage2_mmu.stage2_tlb.domain_faults            0                       # Number of TLB faults due to domain restrictions
system.cpu01.dtb.stage2_mmu.stage2_tlb.flush_entries            0                       # Number of entries that have been flushed from TLB
system.cpu01.dtb.stage2_mmu.stage2_tlb.flush_tlb            0                       # Number of times complete TLB was flushed
system.cpu01.dtb.stage2_mmu.stage2_tlb.flush_tlb_asid            0                       # Number of times TLB was flushed by ASID
system.cpu01.dtb.stage2_mmu.stage2_tlb.flush_tlb_mva            0                       # Number of times TLB was flushed by MVA
system.cpu01.dtb.stage2_mmu.stage2_tlb.flush_tlb_mva_asid            0                       # Number of times TLB was flushed by MVA & ASID
system.cpu01.dtb.stage2_mmu.stage2_tlb.hits            0                       # DTB hits
system.cpu01.dtb.stage2_mmu.stage2_tlb.inst_accesses            0                       # ITB inst accesses
system.cpu01.dtb.stage2_mmu.stage2_tlb.inst_hits            0                       # ITB inst hits
system.cpu01.dtb.stage2_mmu.stage2_tlb.inst_misses            0                       # ITB inst misses
system.cpu01.dtb.stage2_mmu.stage2_tlb.misses            0                       # DTB misses
system.cpu01.dtb.stage2_mmu.stage2_tlb.perms_faults            0                       # Number of TLB faults due to permissions restrictions
system.cpu01.dtb.stage2_mmu.stage2_tlb.prefetch_faults            0                       # Number of TLB faults due to prefetch
system.cpu01.dtb.stage2_mmu.stage2_tlb.read_accesses            0                       # DTB read accesses
system.cpu01.dtb.stage2_mmu.stage2_tlb.read_hits            0                       # DTB read hits
system.cpu01.dtb.stage2_mmu.stage2_tlb.read_misses            0                       # DTB read misses
system.cpu01.dtb.stage2_mmu.stage2_tlb.walker.walkRequestOrigin_Requested::Data            0                       # Table walker requests started/completed, data/inst
system.cpu01.dtb.stage2_mmu.stage2_tlb.walker.walkRequestOrigin_Requested::Inst            0                       # Table walker requests started/completed, data/inst
system.cpu01.dtb.stage2_mmu.stage2_tlb.walker.walkRequestOrigin_Requested::total            0                       # Table walker requests started/completed, data/inst
system.cpu01.dtb.stage2_mmu.stage2_tlb.walker.walkRequestOrigin_Completed::Data            0                       # Table walker requests started/completed, data/inst
system.cpu01.dtb.stage2_mmu.stage2_tlb.walker.walkRequestOrigin_Completed::Inst            0                       # Table walker requests started/completed, data/inst
system.cpu01.dtb.stage2_mmu.stage2_tlb.walker.walkRequestOrigin_Completed::total            0                       # Table walker requests started/completed, data/inst
system.cpu01.dtb.stage2_mmu.stage2_tlb.walker.walkRequestOrigin::total            0                       # Table walker requests started/completed, data/inst
system.cpu01.dtb.stage2_mmu.stage2_tlb.walker.walks            0                       # Table walker walks requested
system.cpu01.dtb.stage2_mmu.stage2_tlb.write_accesses            0                       # DTB write accesses
system.cpu01.dtb.stage2_mmu.stage2_tlb.write_hits            0                       # DTB write hits
system.cpu01.dtb.stage2_mmu.stage2_tlb.write_misses            0                       # DTB write misses
system.cpu01.dtb.walker.walkPageSizes::4K         1084     96.44%     96.44% # Table walker page sizes translated
system.cpu01.dtb.walker.walkPageSizes::2M           26      2.31%     98.75% # Table walker page sizes translated
system.cpu01.dtb.walker.walkPageSizes::1G           14      1.25%    100.00% # Table walker page sizes translated
system.cpu01.dtb.walker.walkPageSizes::total         1124                       # Table walker page sizes translated
system.cpu01.dtb.walker.walkRequestOrigin_Requested::Data         1148                       # Table walker requests started/completed, data/inst
system.cpu01.dtb.walker.walkRequestOrigin_Requested::Inst            0                       # Table walker requests started/completed, data/inst
system.cpu01.dtb.walker.walkRequestOrigin_Requested::total         1148                       # Table walker requests started/completed, data/inst
system.cpu01.dtb.walker.walkRequestOrigin_Completed::Data         1124                       # Table walker requests started/completed, data/inst
system.cpu01.dtb.walker.walkRequestOrigin_Completed::Inst            0                       # Table walker requests started/completed, data/inst
system.cpu01.dtb.walker.walkRequestOrigin_Completed::total         1124                       # Table walker requests started/completed, data/inst
system.cpu01.dtb.walker.walkRequestOrigin::total         2272                       # Table walker requests started/completed, data/inst
system.cpu01.dtb.walker.walkWaitTime::samples         1148                       # Table walker wait (enqueue to first request) latency
system.cpu01.dtb.walker.walkWaitTime::0          1148    100.00%    100.00% # Table walker wait (enqueue to first request) latency
system.cpu01.dtb.walker.walkWaitTime::total         1148                       # Table walker wait (enqueue to first request) latency
system.cpu01.dtb.walker.walks                    1148                       # Table walker walks requested
system.cpu01.dtb.walker.walksLong                1148                       # Table walker walks initiated with long descriptors
system.cpu01.dtb.walker.walksPending::samples    885228180                       # Table walker pending requests distribution
system.cpu01.dtb.walker.walksPending::0     885228180    100.00%    100.00% # Table walker pending requests distribution
system.cpu01.dtb.walker.walksPending::total    885228180                       # Table walker pending requests distribution
system.cpu01.dtb.write_accesses               1746088                       # DTB write accesses
system.cpu01.dtb.write_hits                   1745917                       # DTB write hits
system.cpu01.dtb.write_misses                     171                       # DTB write misses
system.cpu01.idle_fraction                   0.989510                       # Percentage of idle cycles
system.cpu01.itb.accesses                    11199493                       # DTB accesses
system.cpu01.itb.align_faults                       0                       # Number of TLB faults due to alignment restrictions
system.cpu01.itb.domain_faults                      0                       # Number of TLB faults due to domain restrictions
system.cpu01.itb.flush_entries                    521                       # Number of entries that have been flushed from TLB
system.cpu01.itb.flush_tlb                          8                       # Number of times complete TLB was flushed
system.cpu01.itb.flush_tlb_asid                   492                       # Number of times TLB was flushed by ASID
system.cpu01.itb.flush_tlb_mva                   1467                       # Number of times TLB was flushed by MVA
system.cpu01.itb.flush_tlb_mva_asid             58314                       # Number of times TLB was flushed by MVA & ASID
system.cpu01.itb.hits                        11184414                       # DTB hits
system.cpu01.itb.inst_accesses               11199493                       # ITB inst accesses
system.cpu01.itb.inst_hits                   11184414                       # ITB inst hits
system.cpu01.itb.inst_misses                    15079                       # ITB inst misses
system.cpu01.itb.misses                         15079                       # DTB misses
system.cpu01.itb.perms_faults                       0                       # Number of TLB faults due to permissions restrictions
system.cpu01.itb.prefetch_faults                    0                       # Number of TLB faults due to prefetch
system.cpu01.itb.read_accesses                      0                       # DTB read accesses
system.cpu01.itb.read_hits                          0                       # DTB read hits
system.cpu01.itb.read_misses                        0                       # DTB read misses
system.cpu01.itb.stage2_mmu.stage2_tlb.accesses            0                       # DTB accesses
system.cpu01.itb.stage2_mmu.stage2_tlb.align_faults            0                       # Number of TLB faults due to alignment restrictions
system.cpu01.itb.stage2_mmu.stage2_tlb.domain_faults            0                       # Number of TLB faults due to domain restrictions
system.cpu01.itb.stage2_mmu.stage2_tlb.flush_entries            0                       # Number of entries that have been flushed from TLB
system.cpu01.itb.stage2_mmu.stage2_tlb.flush_tlb            0                       # Number of times complete TLB was flushed
system.cpu01.itb.stage2_mmu.stage2_tlb.flush_tlb_asid            0                       # Number of times TLB was flushed by ASID
system.cpu01.itb.stage2_mmu.stage2_tlb.flush_tlb_mva            0                       # Number of times TLB was flushed by MVA
system.cpu01.itb.stage2_mmu.stage2_tlb.flush_tlb_mva_asid            0                       # Number of times TLB was flushed by MVA & ASID
system.cpu01.itb.stage2_mmu.stage2_tlb.hits            0                       # DTB hits
system.cpu01.itb.stage2_mmu.stage2_tlb.inst_accesses            0                       # ITB inst accesses
system.cpu01.itb.stage2_mmu.stage2_tlb.inst_hits            0                       # ITB inst hits
system.cpu01.itb.stage2_mmu.stage2_tlb.inst_misses            0                       # ITB inst misses
system.cpu01.itb.stage2_mmu.stage2_tlb.misses            0                       # DTB misses
system.cpu01.itb.stage2_mmu.stage2_tlb.perms_faults            0                       # Number of TLB faults due to permissions restrictions
system.cpu01.itb.stage2_mmu.stage2_tlb.prefetch_faults            0                       # Number of TLB faults due to prefetch
system.cpu01.itb.stage2_mmu.stage2_tlb.read_accesses            0                       # DTB read accesses
system.cpu01.itb.stage2_mmu.stage2_tlb.read_hits            0                       # DTB read hits
system.cpu01.itb.stage2_mmu.stage2_tlb.read_misses            0                       # DTB read misses
system.cpu01.itb.stage2_mmu.stage2_tlb.walker.walkRequestOrigin_Requested::Data            0                       # Table walker requests started/completed, data/inst
system.cpu01.itb.stage2_mmu.stage2_tlb.walker.walkRequestOrigin_Requested::Inst            0                       # Table walker requests started/completed, data/inst
system.cpu01.itb.stage2_mmu.stage2_tlb.walker.walkRequestOrigin_Requested::total            0                       # Table walker requests started/completed, data/inst
system.cpu01.itb.stage2_mmu.stage2_tlb.walker.walkRequestOrigin_Completed::Data            0                       # Table walker requests started/completed, data/inst
system.cpu01.itb.stage2_mmu.stage2_tlb.walker.walkRequestOrigin_Completed::Inst            0                       # Table walker requests started/completed, data/inst
system.cpu01.itb.stage2_mmu.stage2_tlb.walker.walkRequestOrigin_Completed::total            0                       # Table walker requests started/completed, data/inst
system.cpu01.itb.stage2_mmu.stage2_tlb.walker.walkRequestOrigin::total            0                       # Table walker requests started/completed, data/inst
system.cpu01.itb.stage2_mmu.stage2_tlb.walker.walks            0                       # Table walker walks requested
system.cpu01.itb.stage2_mmu.stage2_tlb.write_accesses            0                       # DTB write accesses
system.cpu01.itb.stage2_mmu.stage2_tlb.write_hits            0                       # DTB write hits
system.cpu01.itb.stage2_mmu.stage2_tlb.write_misses            0                       # DTB write misses
system.cpu01.itb.walker.walkPageSizes::4K        15019     99.71%     99.71% # Table walker page sizes translated
system.cpu01.itb.walker.walkPageSizes::2M           44      0.29%    100.00% # Table walker page sizes translated
system.cpu01.itb.walker.walkPageSizes::total        15063                       # Table walker page sizes translated
system.cpu01.itb.walker.walkRequestOrigin_Requested::Data            0                       # Table walker requests started/completed, data/inst
system.cpu01.itb.walker.walkRequestOrigin_Requested::Inst        15079                       # Table walker requests started/completed, data/inst
system.cpu01.itb.walker.walkRequestOrigin_Requested::total        15079                       # Table walker requests started/completed, data/inst
system.cpu01.itb.walker.walkRequestOrigin_Completed::Data            0                       # Table walker requests started/completed, data/inst
system.cpu01.itb.walker.walkRequestOrigin_Completed::Inst        15063                       # Table walker requests started/completed, data/inst
system.cpu01.itb.walker.walkRequestOrigin_Completed::total        15063                       # Table walker requests started/completed, data/inst
system.cpu01.itb.walker.walkRequestOrigin::total        30142                       # Table walker requests started/completed, data/inst
system.cpu01.itb.walker.walkWaitTime::samples        15079                       # Table walker wait (enqueue to first request) latency
system.cpu01.itb.walker.walkWaitTime::0         15079    100.00%    100.00% # Table walker wait (enqueue to first request) latency
system.cpu01.itb.walker.walkWaitTime::total        15079                       # Table walker wait (enqueue to first request) latency
system.cpu01.itb.walker.walks                   15079                       # Table walker walks requested
system.cpu01.itb.walker.walksLong               15079                       # Table walker walks initiated with long descriptors
system.cpu01.itb.walker.walksPending::samples    885200400                       # Table walker pending requests distribution
system.cpu01.itb.walker.walksPending::0     885200400    100.00%    100.00% # Table walker pending requests distribution
system.cpu01.itb.walker.walksPending::total    885200400                       # Table walker pending requests distribution
system.cpu01.itb.write_accesses                     0                       # DTB write accesses
system.cpu01.itb.write_hits                         0                       # DTB write hits
system.cpu01.itb.write_misses                       0                       # DTB write misses
system.cpu01.kern.inst.arm                          0                       # number of arm instructions executed
system.cpu01.kern.inst.quiesce                   2548                       # number of quiesce instructions executed
system.cpu01.not_idle_fraction               0.010490                       # Percentage of non-idle cycles
system.cpu01.numCycles                     1261469440                       # number of cpu cycles simulated
system.cpu01.numWorkItemsCompleted                  0                       # number of work items this cpu completed
system.cpu01.numWorkItemsStarted                    0                       # number of work items this cpu started
system.cpu01.num_busy_cycles             13232825.627286                       # Number of busy cycles
system.cpu01.num_cc_register_reads            3498237                       # number of times the CC registers were read
system.cpu01.num_cc_register_writes           1872801                       # number of times the CC registers were written
system.cpu01.num_conditional_control_insts      1570641                       # number of instructions that are conditional controls
system.cpu01.num_fp_alu_accesses                    0                       # Number of float alu accesses
system.cpu01.num_fp_insts                           0                       # number of float instructions
system.cpu01.num_fp_register_reads                  0                       # number of times the floating registers were read
system.cpu01.num_fp_register_writes                 0                       # number of times the floating registers were written
system.cpu01.num_func_calls                    887429                       # number of times a function call or return occured
system.cpu01.num_idle_cycles             1248236614.372714                       # Number of idle cycles
system.cpu01.num_int_alu_accesses            12129428                       # Number of integer alu accesses
system.cpu01.num_int_insts                   12129428                       # number of integer instructions
system.cpu01.num_int_register_reads          15772377                       # number of times the integer registers were read
system.cpu01.num_int_register_writes          9569805                       # number of times the integer registers were written
system.cpu01.num_load_insts                   2682722                       # Number of load instructions
system.cpu01.num_mem_refs                     4428733                       # number of memory refs
system.cpu01.num_store_insts                  1746011                       # Number of store instructions
system.cpu01.num_vec_alu_accesses                2567                       # Number of vector alu accesses
system.cpu01.num_vec_insts                       2567                       # number of vector instructions
system.cpu01.num_vec_register_reads              2203                       # number of times the vector registers were read
system.cpu01.num_vec_register_writes              368                       # number of times the vector registers were written
system.cpu01.op_class::No_OpClass                1095      0.01%      0.01% # Class of executed instruction
system.cpu01.op_class::IntAlu                 8897285     66.63%     66.63% # Class of executed instruction
system.cpu01.op_class::IntMult                  21782      0.16%     66.80% # Class of executed instruction
system.cpu01.op_class::IntDiv                    5259      0.04%     66.84% # Class of executed instruction
system.cpu01.op_class::FloatAdd                     0      0.00%     66.84% # Class of executed instruction
system.cpu01.op_class::FloatCmp                     0      0.00%     66.84% # Class of executed instruction
system.cpu01.op_class::FloatCvt                     0      0.00%     66.84% # Class of executed instruction
system.cpu01.op_class::FloatMult                    0      0.00%     66.84% # Class of executed instruction
system.cpu01.op_class::FloatMultAcc                 0      0.00%     66.84% # Class of executed instruction
system.cpu01.op_class::FloatDiv                     0      0.00%     66.84% # Class of executed instruction
system.cpu01.op_class::FloatMisc                   17      0.00%     66.84% # Class of executed instruction
system.cpu01.op_class::FloatSqrt                    0      0.00%     66.84% # Class of executed instruction
system.cpu01.op_class::SimdAdd                      0      0.00%     66.84% # Class of executed instruction
system.cpu01.op_class::SimdAddAcc                   0      0.00%     66.84% # Class of executed instruction
system.cpu01.op_class::SimdAlu                      0      0.00%     66.84% # Class of executed instruction
system.cpu01.op_class::SimdCmp                      0      0.00%     66.84% # Class of executed instruction
system.cpu01.op_class::SimdCvt                      0      0.00%     66.84% # Class of executed instruction
system.cpu01.op_class::SimdMisc                     0      0.00%     66.84% # Class of executed instruction
system.cpu01.op_class::SimdMult                     0      0.00%     66.84% # Class of executed instruction
system.cpu01.op_class::SimdMultAcc                  0      0.00%     66.84% # Class of executed instruction
system.cpu01.op_class::SimdShift                    0      0.00%     66.84% # Class of executed instruction
system.cpu01.op_class::SimdShiftAcc                 0      0.00%     66.84% # Class of executed instruction
system.cpu01.op_class::SimdDiv                      0      0.00%     66.84% # Class of executed instruction
system.cpu01.op_class::SimdSqrt                     0      0.00%     66.84% # Class of executed instruction
system.cpu01.op_class::SimdFloatAdd                 0      0.00%     66.84% # Class of executed instruction
system.cpu01.op_class::SimdFloatAlu                 0      0.00%     66.84% # Class of executed instruction
system.cpu01.op_class::SimdFloatCmp                 0      0.00%     66.84% # Class of executed instruction
system.cpu01.op_class::SimdFloatCvt                 0      0.00%     66.84% # Class of executed instruction
system.cpu01.op_class::SimdFloatDiv                 0      0.00%     66.84% # Class of executed instruction
system.cpu01.op_class::SimdFloatMisc                0      0.00%     66.84% # Class of executed instruction
system.cpu01.op_class::SimdFloatMult                0      0.00%     66.84% # Class of executed instruction
system.cpu01.op_class::SimdFloatMultAcc             0      0.00%     66.84% # Class of executed instruction
system.cpu01.op_class::SimdFloatSqrt                0      0.00%     66.84% # Class of executed instruction
system.cpu01.op_class::SimdReduceAdd                0      0.00%     66.84% # Class of executed instruction
system.cpu01.op_class::SimdReduceAlu                0      0.00%     66.84% # Class of executed instruction
system.cpu01.op_class::SimdReduceCmp                0      0.00%     66.84% # Class of executed instruction
system.cpu01.op_class::SimdFloatReduceAdd            0      0.00%     66.84% # Class of executed instruction
system.cpu01.op_class::SimdFloatReduceCmp            0      0.00%     66.84% # Class of executed instruction
system.cpu01.op_class::SimdAes                      0      0.00%     66.84% # Class of executed instruction
system.cpu01.op_class::SimdAesMix                   0      0.00%     66.84% # Class of executed instruction
system.cpu01.op_class::SimdSha1Hash                 0      0.00%     66.84% # Class of executed instruction
system.cpu01.op_class::SimdSha1Hash2                0      0.00%     66.84% # Class of executed instruction
system.cpu01.op_class::SimdSha256Hash               0      0.00%     66.84% # Class of executed instruction
system.cpu01.op_class::SimdSha256Hash2              0      0.00%     66.84% # Class of executed instruction
system.cpu01.op_class::SimdShaSigma2                0      0.00%     66.84% # Class of executed instruction
system.cpu01.op_class::SimdShaSigma3                0      0.00%     66.84% # Class of executed instruction
system.cpu01.op_class::SimdPredAlu                  0      0.00%     66.84% # Class of executed instruction
system.cpu01.op_class::MemRead                2682722     20.09%     86.93% # Class of executed instruction
system.cpu01.op_class::MemWrite               1746011     13.07%    100.00% # Class of executed instruction
system.cpu01.op_class::FloatMemRead                 0      0.00%    100.00% # Class of executed instruction
system.cpu01.op_class::FloatMemWrite                0      0.00%    100.00% # Class of executed instruction
system.cpu01.op_class::IprAccess                    0      0.00%    100.00% # Class of executed instruction
system.cpu01.op_class::InstPrefetch                 0      0.00%    100.00% # Class of executed instruction
system.cpu01.op_class::total                 13354171                       # Class of executed instruction
system.cpu02.Branches                         4760469                       # Number of branches fetched
system.cpu02.committedInsts                  22330608                       # Number of instructions committed
system.cpu02.committedOps                    26031488                       # Number of ops (including micro ops) committed
system.cpu02.dtb.accesses                     8270642                       # DTB accesses
system.cpu02.dtb.align_faults                       0                       # Number of TLB faults due to alignment restrictions
system.cpu02.dtb.domain_faults                      0                       # Number of TLB faults due to domain restrictions
system.cpu02.dtb.flush_entries                    194                       # Number of entries that have been flushed from TLB
system.cpu02.dtb.flush_tlb                          8                       # Number of times complete TLB was flushed
system.cpu02.dtb.flush_tlb_asid                   492                       # Number of times TLB was flushed by ASID
system.cpu02.dtb.flush_tlb_mva                   1467                       # Number of times TLB was flushed by MVA
system.cpu02.dtb.flush_tlb_mva_asid             58314                       # Number of times TLB was flushed by MVA & ASID
system.cpu02.dtb.hits                         8269073                       # DTB hits
system.cpu02.dtb.inst_accesses                      0                       # ITB inst accesses
system.cpu02.dtb.inst_hits                          0                       # ITB inst hits
system.cpu02.dtb.inst_misses                        0                       # ITB inst misses
system.cpu02.dtb.misses                          1569                       # DTB misses
system.cpu02.dtb.perms_faults                      10                       # Number of TLB faults due to permissions restrictions
system.cpu02.dtb.prefetch_faults                  337                       # Number of TLB faults due to prefetch
system.cpu02.dtb.read_accesses                4962200                       # DTB read accesses
system.cpu02.dtb.read_hits                    4961383                       # DTB read hits
system.cpu02.dtb.read_misses                      817                       # DTB read misses
system.cpu02.dtb.stage2_mmu.stage2_tlb.accesses            0                       # DTB accesses
system.cpu02.dtb.stage2_mmu.stage2_tlb.align_faults            0                       # Number of TLB faults due to alignment restrictions
system.cpu02.dtb.stage2_mmu.stage2_tlb.domain_faults            0                       # Number of TLB faults due to domain restrictions
system.cpu02.dtb.stage2_mmu.stage2_tlb.flush_entries            0                       # Number of entries that have been flushed from TLB
system.cpu02.dtb.stage2_mmu.stage2_tlb.flush_tlb            0                       # Number of times complete TLB was flushed
system.cpu02.dtb.stage2_mmu.stage2_tlb.flush_tlb_asid            0                       # Number of times TLB was flushed by ASID
system.cpu02.dtb.stage2_mmu.stage2_tlb.flush_tlb_mva            0                       # Number of times TLB was flushed by MVA
system.cpu02.dtb.stage2_mmu.stage2_tlb.flush_tlb_mva_asid            0                       # Number of times TLB was flushed by MVA & ASID
system.cpu02.dtb.stage2_mmu.stage2_tlb.hits            0                       # DTB hits
system.cpu02.dtb.stage2_mmu.stage2_tlb.inst_accesses            0                       # ITB inst accesses
system.cpu02.dtb.stage2_mmu.stage2_tlb.inst_hits            0                       # ITB inst hits
system.cpu02.dtb.stage2_mmu.stage2_tlb.inst_misses            0                       # ITB inst misses
system.cpu02.dtb.stage2_mmu.stage2_tlb.misses            0                       # DTB misses
system.cpu02.dtb.stage2_mmu.stage2_tlb.perms_faults            0                       # Number of TLB faults due to permissions restrictions
system.cpu02.dtb.stage2_mmu.stage2_tlb.prefetch_faults            0                       # Number of TLB faults due to prefetch
system.cpu02.dtb.stage2_mmu.stage2_tlb.read_accesses            0                       # DTB read accesses
system.cpu02.dtb.stage2_mmu.stage2_tlb.read_hits            0                       # DTB read hits
system.cpu02.dtb.stage2_mmu.stage2_tlb.read_misses            0                       # DTB read misses
system.cpu02.dtb.stage2_mmu.stage2_tlb.walker.walkRequestOrigin_Requested::Data            0                       # Table walker requests started/completed, data/inst
system.cpu02.dtb.stage2_mmu.stage2_tlb.walker.walkRequestOrigin_Requested::Inst            0                       # Table walker requests started/completed, data/inst
system.cpu02.dtb.stage2_mmu.stage2_tlb.walker.walkRequestOrigin_Requested::total            0                       # Table walker requests started/completed, data/inst
system.cpu02.dtb.stage2_mmu.stage2_tlb.walker.walkRequestOrigin_Completed::Data            0                       # Table walker requests started/completed, data/inst
system.cpu02.dtb.stage2_mmu.stage2_tlb.walker.walkRequestOrigin_Completed::Inst            0                       # Table walker requests started/completed, data/inst
system.cpu02.dtb.stage2_mmu.stage2_tlb.walker.walkRequestOrigin_Completed::total            0                       # Table walker requests started/completed, data/inst
system.cpu02.dtb.stage2_mmu.stage2_tlb.walker.walkRequestOrigin::total            0                       # Table walker requests started/completed, data/inst
system.cpu02.dtb.stage2_mmu.stage2_tlb.walker.walks            0                       # Table walker walks requested
system.cpu02.dtb.stage2_mmu.stage2_tlb.write_accesses            0                       # DTB write accesses
system.cpu02.dtb.stage2_mmu.stage2_tlb.write_hits            0                       # DTB write hits
system.cpu02.dtb.stage2_mmu.stage2_tlb.write_misses            0                       # DTB write misses
system.cpu02.dtb.walker.walkPageSizes::4K         1516     98.19%     98.19% # Table walker page sizes translated
system.cpu02.dtb.walker.walkPageSizes::2M           19      1.23%     99.42% # Table walker page sizes translated
system.cpu02.dtb.walker.walkPageSizes::1G            9      0.58%    100.00% # Table walker page sizes translated
system.cpu02.dtb.walker.walkPageSizes::total         1544                       # Table walker page sizes translated
system.cpu02.dtb.walker.walkRequestOrigin_Requested::Data         1569                       # Table walker requests started/completed, data/inst
system.cpu02.dtb.walker.walkRequestOrigin_Requested::Inst            0                       # Table walker requests started/completed, data/inst
system.cpu02.dtb.walker.walkRequestOrigin_Requested::total         1569                       # Table walker requests started/completed, data/inst
system.cpu02.dtb.walker.walkRequestOrigin_Completed::Data         1544                       # Table walker requests started/completed, data/inst
system.cpu02.dtb.walker.walkRequestOrigin_Completed::Inst            0                       # Table walker requests started/completed, data/inst
system.cpu02.dtb.walker.walkRequestOrigin_Completed::total         1544                       # Table walker requests started/completed, data/inst
system.cpu02.dtb.walker.walkRequestOrigin::total         3113                       # Table walker requests started/completed, data/inst
system.cpu02.dtb.walker.walkWaitTime::samples         1569                       # Table walker wait (enqueue to first request) latency
system.cpu02.dtb.walker.walkWaitTime::0          1569    100.00%    100.00% # Table walker wait (enqueue to first request) latency
system.cpu02.dtb.walker.walkWaitTime::total         1569                       # Table walker wait (enqueue to first request) latency
system.cpu02.dtb.walker.walks                    1569                       # Table walker walks requested
system.cpu02.dtb.walker.walksLong                1569                       # Table walker walks initiated with long descriptors
system.cpu02.dtb.walker.walksPending::samples  -1222474676                       # Table walker pending requests distribution
system.cpu02.dtb.walker.walksPending::0   -1222474676    100.00%    100.00% # Table walker pending requests distribution
system.cpu02.dtb.walker.walksPending::total  -1222474676                       # Table walker pending requests distribution
system.cpu02.dtb.write_accesses               3308442                       # DTB write accesses
system.cpu02.dtb.write_hits                   3307690                       # DTB write hits
system.cpu02.dtb.write_misses                     752                       # DTB write misses
system.cpu02.idle_fraction                   0.979551                       # Percentage of idle cycles
system.cpu02.itb.accesses                    22329941                       # DTB accesses
system.cpu02.itb.align_faults                       0                       # Number of TLB faults due to alignment restrictions
system.cpu02.itb.domain_faults                      0                       # Number of TLB faults due to domain restrictions
system.cpu02.itb.flush_entries                    203                       # Number of entries that have been flushed from TLB
system.cpu02.itb.flush_tlb                          8                       # Number of times complete TLB was flushed
system.cpu02.itb.flush_tlb_asid                   492                       # Number of times TLB was flushed by ASID
system.cpu02.itb.flush_tlb_mva                   1467                       # Number of times TLB was flushed by MVA
system.cpu02.itb.flush_tlb_mva_asid             58314                       # Number of times TLB was flushed by MVA & ASID
system.cpu02.itb.hits                        22301507                       # DTB hits
system.cpu02.itb.inst_accesses               22329941                       # ITB inst accesses
system.cpu02.itb.inst_hits                   22301507                       # ITB inst hits
system.cpu02.itb.inst_misses                    28434                       # ITB inst misses
system.cpu02.itb.misses                         28434                       # DTB misses
system.cpu02.itb.perms_faults                       0                       # Number of TLB faults due to permissions restrictions
system.cpu02.itb.prefetch_faults                    0                       # Number of TLB faults due to prefetch
system.cpu02.itb.read_accesses                      0                       # DTB read accesses
system.cpu02.itb.read_hits                          0                       # DTB read hits
system.cpu02.itb.read_misses                        0                       # DTB read misses
system.cpu02.itb.stage2_mmu.stage2_tlb.accesses            0                       # DTB accesses
system.cpu02.itb.stage2_mmu.stage2_tlb.align_faults            0                       # Number of TLB faults due to alignment restrictions
system.cpu02.itb.stage2_mmu.stage2_tlb.domain_faults            0                       # Number of TLB faults due to domain restrictions
system.cpu02.itb.stage2_mmu.stage2_tlb.flush_entries            0                       # Number of entries that have been flushed from TLB
system.cpu02.itb.stage2_mmu.stage2_tlb.flush_tlb            0                       # Number of times complete TLB was flushed
system.cpu02.itb.stage2_mmu.stage2_tlb.flush_tlb_asid            0                       # Number of times TLB was flushed by ASID
system.cpu02.itb.stage2_mmu.stage2_tlb.flush_tlb_mva            0                       # Number of times TLB was flushed by MVA
system.cpu02.itb.stage2_mmu.stage2_tlb.flush_tlb_mva_asid            0                       # Number of times TLB was flushed by MVA & ASID
system.cpu02.itb.stage2_mmu.stage2_tlb.hits            0                       # DTB hits
system.cpu02.itb.stage2_mmu.stage2_tlb.inst_accesses            0                       # ITB inst accesses
system.cpu02.itb.stage2_mmu.stage2_tlb.inst_hits            0                       # ITB inst hits
system.cpu02.itb.stage2_mmu.stage2_tlb.inst_misses            0                       # ITB inst misses
system.cpu02.itb.stage2_mmu.stage2_tlb.misses            0                       # DTB misses
system.cpu02.itb.stage2_mmu.stage2_tlb.perms_faults            0                       # Number of TLB faults due to permissions restrictions
system.cpu02.itb.stage2_mmu.stage2_tlb.prefetch_faults            0                       # Number of TLB faults due to prefetch
system.cpu02.itb.stage2_mmu.stage2_tlb.read_accesses            0                       # DTB read accesses
system.cpu02.itb.stage2_mmu.stage2_tlb.read_hits            0                       # DTB read hits
system.cpu02.itb.stage2_mmu.stage2_tlb.read_misses            0                       # DTB read misses
system.cpu02.itb.stage2_mmu.stage2_tlb.walker.walkRequestOrigin_Requested::Data            0                       # Table walker requests started/completed, data/inst
system.cpu02.itb.stage2_mmu.stage2_tlb.walker.walkRequestOrigin_Requested::Inst            0                       # Table walker requests started/completed, data/inst
system.cpu02.itb.stage2_mmu.stage2_tlb.walker.walkRequestOrigin_Requested::total            0                       # Table walker requests started/completed, data/inst
system.cpu02.itb.stage2_mmu.stage2_tlb.walker.walkRequestOrigin_Completed::Data            0                       # Table walker requests started/completed, data/inst
system.cpu02.itb.stage2_mmu.stage2_tlb.walker.walkRequestOrigin_Completed::Inst            0                       # Table walker requests started/completed, data/inst
system.cpu02.itb.stage2_mmu.stage2_tlb.walker.walkRequestOrigin_Completed::total            0                       # Table walker requests started/completed, data/inst
system.cpu02.itb.stage2_mmu.stage2_tlb.walker.walkRequestOrigin::total            0                       # Table walker requests started/completed, data/inst
system.cpu02.itb.stage2_mmu.stage2_tlb.walker.walks            0                       # Table walker walks requested
system.cpu02.itb.stage2_mmu.stage2_tlb.write_accesses            0                       # DTB write accesses
system.cpu02.itb.stage2_mmu.stage2_tlb.write_hits            0                       # DTB write hits
system.cpu02.itb.stage2_mmu.stage2_tlb.write_misses            0                       # DTB write misses
system.cpu02.itb.walker.walkPageSizes::4K        28133     98.98%     98.98% # Table walker page sizes translated
system.cpu02.itb.walker.walkPageSizes::2M          290      1.02%    100.00% # Table walker page sizes translated
system.cpu02.itb.walker.walkPageSizes::total        28423                       # Table walker page sizes translated
system.cpu02.itb.walker.walkRequestOrigin_Requested::Data            0                       # Table walker requests started/completed, data/inst
system.cpu02.itb.walker.walkRequestOrigin_Requested::Inst        28434                       # Table walker requests started/completed, data/inst
system.cpu02.itb.walker.walkRequestOrigin_Requested::total        28434                       # Table walker requests started/completed, data/inst
system.cpu02.itb.walker.walkRequestOrigin_Completed::Data            0                       # Table walker requests started/completed, data/inst
system.cpu02.itb.walker.walkRequestOrigin_Completed::Inst        28423                       # Table walker requests started/completed, data/inst
system.cpu02.itb.walker.walkRequestOrigin_Completed::total        28423                       # Table walker requests started/completed, data/inst
system.cpu02.itb.walker.walkRequestOrigin::total        56857                       # Table walker requests started/completed, data/inst
system.cpu02.itb.walker.walkWaitTime::samples        28434                       # Table walker wait (enqueue to first request) latency
system.cpu02.itb.walker.walkWaitTime::0         28434    100.00%    100.00% # Table walker wait (enqueue to first request) latency
system.cpu02.itb.walker.walkWaitTime::total        28434                       # Table walker wait (enqueue to first request) latency
system.cpu02.itb.walker.walks                   28434                       # Table walker walks requested
system.cpu02.itb.walker.walksLong               28434                       # Table walker walks initiated with long descriptors
system.cpu02.itb.walker.walksPending::samples  -1222502456                       # Table walker pending requests distribution
system.cpu02.itb.walker.walksPending::0   -1222502456    100.00%    100.00% # Table walker pending requests distribution
system.cpu02.itb.walker.walksPending::total  -1222502456                       # Table walker pending requests distribution
system.cpu02.itb.write_accesses                     0                       # DTB write accesses
system.cpu02.itb.write_hits                         0                       # DTB write hits
system.cpu02.itb.write_misses                       0                       # DTB write misses
system.cpu02.kern.inst.arm                          0                       # number of arm instructions executed
system.cpu02.kern.inst.quiesce                   3046                       # number of quiesce instructions executed
system.cpu02.not_idle_fraction               0.020449                       # Percentage of non-idle cycles
system.cpu02.numCycles                     1268670784                       # number of cpu cycles simulated
system.cpu02.numWorkItemsCompleted                  0                       # number of work items this cpu completed
system.cpu02.numWorkItemsStarted                    0                       # number of work items this cpu started
system.cpu02.num_busy_cycles             25943228.187594                       # Number of busy cycles
system.cpu02.num_cc_register_reads            6863673                       # number of times the CC registers were read
system.cpu02.num_cc_register_writes           5101902                       # number of times the CC registers were written
system.cpu02.num_conditional_control_insts      3033075                       # number of instructions that are conditional controls
system.cpu02.num_fp_alu_accesses                    0                       # Number of float alu accesses
system.cpu02.num_fp_insts                           0                       # number of float instructions
system.cpu02.num_fp_register_reads                  0                       # number of times the floating registers were read
system.cpu02.num_fp_register_writes                 0                       # number of times the floating registers were written
system.cpu02.num_func_calls                   1571533                       # number of times a function call or return occured
system.cpu02.num_idle_cycles             1242727555.812406                       # Number of idle cycles
system.cpu02.num_int_alu_accesses            23850665                       # Number of integer alu accesses
system.cpu02.num_int_insts                   23850665                       # number of integer instructions
system.cpu02.num_int_register_reads          32066346                       # number of times the integer registers were read
system.cpu02.num_int_register_writes         19204726                       # number of times the integer registers were written
system.cpu02.num_load_insts                   4954996                       # Number of load instructions
system.cpu02.num_mem_refs                     8263295                       # number of memory refs
system.cpu02.num_store_insts                  3308299                       # Number of store instructions
system.cpu02.num_vec_alu_accesses                 971                       # Number of vector alu accesses
system.cpu02.num_vec_insts                        971                       # number of vector instructions
system.cpu02.num_vec_register_reads               721                       # number of times the vector registers were read
system.cpu02.num_vec_register_writes              254                       # number of times the vector registers were written
system.cpu02.op_class::No_OpClass                 211      0.00%      0.00% # Class of executed instruction
system.cpu02.op_class::IntAlu                17658930     67.84%     67.84% # Class of executed instruction
system.cpu02.op_class::IntMult                  59287      0.23%     68.07% # Class of executed instruction
system.cpu02.op_class::IntDiv                   49832      0.19%     68.26% # Class of executed instruction
system.cpu02.op_class::FloatAdd                     0      0.00%     68.26% # Class of executed instruction
system.cpu02.op_class::FloatCmp                     0      0.00%     68.26% # Class of executed instruction
system.cpu02.op_class::FloatCvt                     0      0.00%     68.26% # Class of executed instruction
system.cpu02.op_class::FloatMult                    0      0.00%     68.26% # Class of executed instruction
system.cpu02.op_class::FloatMultAcc                 0      0.00%     68.26% # Class of executed instruction
system.cpu02.op_class::FloatDiv                     0      0.00%     68.26% # Class of executed instruction
system.cpu02.op_class::FloatMisc                    7      0.00%     68.26% # Class of executed instruction
system.cpu02.op_class::FloatSqrt                    0      0.00%     68.26% # Class of executed instruction
system.cpu02.op_class::SimdAdd                      0      0.00%     68.26% # Class of executed instruction
system.cpu02.op_class::SimdAddAcc                   0      0.00%     68.26% # Class of executed instruction
system.cpu02.op_class::SimdAlu                      0      0.00%     68.26% # Class of executed instruction
system.cpu02.op_class::SimdCmp                      0      0.00%     68.26% # Class of executed instruction
system.cpu02.op_class::SimdCvt                      0      0.00%     68.26% # Class of executed instruction
system.cpu02.op_class::SimdMisc                     0      0.00%     68.26% # Class of executed instruction
system.cpu02.op_class::SimdMult                     0      0.00%     68.26% # Class of executed instruction
system.cpu02.op_class::SimdMultAcc                  0      0.00%     68.26% # Class of executed instruction
system.cpu02.op_class::SimdShift                    0      0.00%     68.26% # Class of executed instruction
system.cpu02.op_class::SimdShiftAcc                 0      0.00%     68.26% # Class of executed instruction
system.cpu02.op_class::SimdDiv                      0      0.00%     68.26% # Class of executed instruction
system.cpu02.op_class::SimdSqrt                     0      0.00%     68.26% # Class of executed instruction
system.cpu02.op_class::SimdFloatAdd                 0      0.00%     68.26% # Class of executed instruction
system.cpu02.op_class::SimdFloatAlu                 0      0.00%     68.26% # Class of executed instruction
system.cpu02.op_class::SimdFloatCmp                 0      0.00%     68.26% # Class of executed instruction
system.cpu02.op_class::SimdFloatCvt                 0      0.00%     68.26% # Class of executed instruction
system.cpu02.op_class::SimdFloatDiv                 0      0.00%     68.26% # Class of executed instruction
system.cpu02.op_class::SimdFloatMisc                0      0.00%     68.26% # Class of executed instruction
system.cpu02.op_class::SimdFloatMult                0      0.00%     68.26% # Class of executed instruction
system.cpu02.op_class::SimdFloatMultAcc             0      0.00%     68.26% # Class of executed instruction
system.cpu02.op_class::SimdFloatSqrt                0      0.00%     68.26% # Class of executed instruction
system.cpu02.op_class::SimdReduceAdd                0      0.00%     68.26% # Class of executed instruction
system.cpu02.op_class::SimdReduceAlu                0      0.00%     68.26% # Class of executed instruction
system.cpu02.op_class::SimdReduceCmp                0      0.00%     68.26% # Class of executed instruction
system.cpu02.op_class::SimdFloatReduceAdd            0      0.00%     68.26% # Class of executed instruction
system.cpu02.op_class::SimdFloatReduceCmp            0      0.00%     68.26% # Class of executed instruction
system.cpu02.op_class::SimdAes                      0      0.00%     68.26% # Class of executed instruction
system.cpu02.op_class::SimdAesMix                   0      0.00%     68.26% # Class of executed instruction
system.cpu02.op_class::SimdSha1Hash                 0      0.00%     68.26% # Class of executed instruction
system.cpu02.op_class::SimdSha1Hash2                0      0.00%     68.26% # Class of executed instruction
system.cpu02.op_class::SimdSha256Hash               0      0.00%     68.26% # Class of executed instruction
system.cpu02.op_class::SimdSha256Hash2              0      0.00%     68.26% # Class of executed instruction
system.cpu02.op_class::SimdShaSigma2                0      0.00%     68.26% # Class of executed instruction
system.cpu02.op_class::SimdShaSigma3                0      0.00%     68.26% # Class of executed instruction
system.cpu02.op_class::SimdPredAlu                  0      0.00%     68.26% # Class of executed instruction
system.cpu02.op_class::MemRead                4954996     19.03%     87.29% # Class of executed instruction
system.cpu02.op_class::MemWrite               3308299     12.71%    100.00% # Class of executed instruction
system.cpu02.op_class::FloatMemRead                 0      0.00%    100.00% # Class of executed instruction
system.cpu02.op_class::FloatMemWrite                0      0.00%    100.00% # Class of executed instruction
system.cpu02.op_class::IprAccess                    0      0.00%    100.00% # Class of executed instruction
system.cpu02.op_class::InstPrefetch                 0      0.00%    100.00% # Class of executed instruction
system.cpu02.op_class::total                 26031562                       # Class of executed instruction
system.cpu03.Branches                         1838747                       # Number of branches fetched
[...]
system.iobus.pkt_size::total                 16528879                       # Cumulative packet size per connected master and slave (bytes)
system.cpu54.numPwrStateTransitions              2516                       # Number of power state transitions
system.cpu54.pwrStateClkGateDist::samples         1242                       # Distribution of time spent in the clock gated state
system.cpu54.pwrStateClkGateDist::mean   5658530858.051530                       # Distribution of time spent in the clock gated state
system.cpu54.pwrStateClkGateDist::stdev  70454278176.460587                       # Distribution of time spent in the clock gated state
system.cpu54.pwrStateClkGateDist::1000-5e+10         1235     99.44%     99.44% # Distribution of time spent in the clock gated state
system.cpu54.pwrStateClkGateDist::5e+10-1e+11            1      0.08%     99.52% # Distribution of time spent in the clock gated state
system.cpu54.pwrStateClkGateDist::2.5e+11-3e+11            2      0.16%     99.68% # Distribution of time spent in the clock gated state
system.cpu54.pwrStateClkGateDist::3.5e+11-4e+11            1      0.08%     99.76% # Distribution of time spent in the clock gated state
system.cpu54.pwrStateClkGateDist::4e+11-4.5e+11            1      0.08%     99.84% # Distribution of time spent in the clock gated state
system.cpu54.pwrStateClkGateDist::4.5e+11-5e+11            1      0.08%     99.92% # Distribution of time spent in the clock gated state
system.cpu54.pwrStateClkGateDist::overflows            1      0.08%    100.00% # Distribution of time spent in the clock gated state
system.cpu54.pwrStateClkGateDist::min_value         5556                       # Distribution of time spent in the clock gated state
system.cpu54.pwrStateClkGateDist::max_value 2336851294260                       # Distribution of time spent in the clock gated state
system.cpu54.pwrStateClkGateDist::total          1242                       # Distribution of time spent in the clock gated state
system.cpu54.pwrStateResidencyTicks::ON   44398762568                       # Cumulative time (in ticks) in various power states
system.cpu54.pwrStateResidencyTicks::CLK_GATED 7027895325700                       # Cumulative time (in ticks) in various power states
system.cpu54.icache.pwrStateResidencyTicks::UNDEFINED 7072294088268                       # Cumulative time (in ticks) in various power states
system.cpu54.icache.demand_hits::.cpu54.inst      6763839                       # number of demand (read+write) hits
system.cpu54.icache.demand_hits::total        6763839                       # number of demand (read+write) hits
system.cpu54.icache.overall_hits::.cpu54.inst      6763839                       # number of overall hits
system.cpu54.icache.overall_hits::total       6763839                       # number of overall hits
system.cpu54.icache.demand_misses::.cpu54.inst        79291                       # number of demand (read+write) misses
system.cpu54.icache.demand_misses::total        79291                       # number of demand (read+write) misses
system.cpu54.icache.overall_misses::.cpu54.inst        79291                       # number of overall misses
system.cpu54.icache.overall_misses::total        79291                       # number of overall misses
system.cpu54.icache.demand_accesses::.cpu54.inst      6843130                       # number of demand (read+write) accesses
system.cpu54.icache.demand_accesses::total      6843130                       # number of demand (read+write) accesses
system.cpu54.icache.overall_accesses::.cpu54.inst      6843130                       # number of overall (read+write) accesses
system.cpu54.icache.overall_accesses::total      6843130                       # number of overall (read+write) accesses
system.cpu54.icache.demand_miss_rate::.cpu54.inst     0.011587                       # miss rate for demand accesses
system.cpu54.icache.demand_miss_rate::total     0.011587                       # miss rate for demand accesses
system.cpu54.icache.overall_miss_rate::.cpu54.inst     0.011587                       # miss rate for overall accesses
system.cpu54.icache.overall_miss_rate::total     0.011587                       # miss rate for overall accesses
system.cpu54.icache.blocked_cycles::no_mshrs            0                       # number of cycles access was blocked
system.cpu54.icache.blocked_cycles::no_targets            0                       # number of cycles access was blocked
system.cpu54.icache.blocked::no_mshrs               0                       # number of cycles access was blocked
system.cpu54.icache.blocked::no_targets             0                       # number of cycles access was blocked
system.cpu54.icache.avg_blocked_cycles::no_mshrs          nan                       # average number of cycles each access was blocked
system.cpu54.icache.avg_blocked_cycles::no_targets          nan                       # average number of cycles each access was blocked
system.cpu54.icache.writebacks::.writebacks        78767                       # number of writebacks
system.cpu54.icache.writebacks::total           78767                       # number of writebacks
system.cpu54.icache.replacements                78767                       # number of replacements
system.cpu54.icache.ReadReq_hits::.cpu54.inst      6763839                       # number of ReadReq hits
system.cpu54.icache.ReadReq_hits::total       6763839                       # number of ReadReq hits
system.cpu54.icache.ReadReq_misses::.cpu54.inst        79291                       # number of ReadReq misses
system.cpu54.icache.ReadReq_misses::total        79291                       # number of ReadReq misses
system.cpu54.icache.ReadReq_accesses::.cpu54.inst      6843130                       # number of ReadReq accesses(hits+misses)
system.cpu54.icache.ReadReq_accesses::total      6843130                       # number of ReadReq accesses(hits+misses)
system.cpu54.icache.ReadReq_miss_rate::.cpu54.inst     0.011587                       # miss rate for ReadReq accesses
system.cpu54.icache.ReadReq_miss_rate::total     0.011587                       # miss rate for ReadReq accesses
system.cpu54.icache.tags.pwrStateResidencyTicks::UNDEFINED 7072294088268                       # Cumulative time (in ticks) in various power states
system.cpu54.icache.tags.tagsinuse         211.203868                       # Cycle average of tags in use
system.cpu54.icache.tags.total_refs           6843130                       # Total number of references to valid blocks.
system.cpu54.icache.tags.sampled_refs           79291                       # Sample count of references to valid blocks.
system.cpu54.icache.tags.avg_refs           86.303994                       # Average number of references to valid blocks.
system.cpu54.icache.tags.warmup_cycle    4132608754476                       # Cycle when the warmup percentage was hit.
system.cpu54.icache.tags.occ_blocks::.cpu54.inst   211.203868                       # Average occupied blocks per requestor
system.cpu54.icache.tags.occ_percent::.cpu54.inst     0.412508                       # Average percentage of cache occupancy
system.cpu54.icache.tags.occ_percent::total     0.412508                       # Average percentage of cache occupancy
system.cpu54.icache.tags.occ_task_id_blocks::1024          512                       # Occupied blocks per task id
system.cpu54.icache.tags.age_task_id_blocks_1024::4          512                       # Occupied blocks per task id
system.cpu54.icache.tags.occ_task_id_percent::1024            1                       # Percentage of cache occupancy per task id
system.cpu54.icache.tags.tag_accesses        13765551                       # Number of tag accesses
system.cpu54.icache.tags.data_accesses       13765551                       # Number of data accesses
system.cpu54.dtb.walker.pwrStateResidencyTicks::UNDEFINED 7072294088268                       # Cumulative time (in ticks) in various power states
system.cpu54.dtb.stage2_mmu.stage2_tlb.walker.pwrStateResidencyTicks::UNDEFINED 7072294088268                       # Cumulative time (in ticks) in various power states
system.cpu54.itb.walker.pwrStateResidencyTicks::UNDEFINED 7072294088268                       # Cumulative time (in ticks) in various power states
system.cpu54.itb.stage2_mmu.stage2_tlb.walker.pwrStateResidencyTicks::UNDEFINED 7072294088268                       # Cumulative time (in ticks) in various power states
system.cpu54.dcache.pwrStateResidencyTicks::UNDEFINED 7072294088268                       # Cumulative time (in ticks) in various power states
system.cpu54.dcache.demand_hits::.cpu54.data      2508966                       # number of demand (read+write) hits
system.cpu54.dcache.demand_hits::total        2508966                       # number of demand (read+write) hits
system.cpu54.dcache.overall_hits::.cpu54.data      2528378                       # number of overall hits
system.cpu54.dcache.overall_hits::total       2528378                       # number of overall hits
system.cpu54.dcache.demand_misses::.cpu54.data        57742                       # number of demand (read+write) misses
system.cpu54.dcache.demand_misses::total        57742                       # number of demand (read+write) misses
system.cpu54.dcache.overall_misses::.cpu54.data        60753                       # number of overall misses
system.cpu54.dcache.overall_misses::total        60753                       # number of overall misses
system.cpu54.dcache.demand_accesses::.cpu54.data      2566708                       # number of demand (read+write) accesses
system.cpu54.dcache.demand_accesses::total      2566708                       # number of demand (read+write) accesses
system.cpu54.dcache.overall_accesses::.cpu54.data      2589131                       # number of overall (read+write) accesses
system.cpu54.dcache.overall_accesses::total      2589131                       # number of overall (read+write) accesses
system.cpu54.dcache.demand_miss_rate::.cpu54.data     0.022497                       # miss rate for demand accesses
system.cpu54.dcache.demand_miss_rate::total     0.022497                       # miss rate for demand accesses
system.cpu54.dcache.overall_miss_rate::.cpu54.data     0.023465                       # miss rate for overall accesses
system.cpu54.dcache.overall_miss_rate::total     0.023465                       # miss rate for overall accesses
system.cpu54.dcache.blocked_cycles::no_mshrs            0                       # number of cycles access was blocked
system.cpu54.dcache.blocked_cycles::no_targets            0                       # number of cycles access was blocked
system.cpu54.dcache.blocked::no_mshrs               0                       # number of cycles access was blocked
system.cpu54.dcache.blocked::no_targets             0                       # number of cycles access was blocked
system.cpu54.dcache.avg_blocked_cycles::no_mshrs          nan                       # average number of cycles each access was blocked
system.cpu54.dcache.avg_blocked_cycles::no_targets          nan                       # average number of cycles each access was blocked
system.cpu54.dcache.writebacks::.writebacks        19256                       # number of writebacks
system.cpu54.dcache.writebacks::total           19256                       # number of writebacks
system.cpu54.dcache.replacements                47109                       # number of replacements
system.cpu54.dcache.ReadReq_hits::.cpu54.data      1609647                       # number of ReadReq hits
system.cpu54.dcache.ReadReq_hits::total       1609647                       # number of ReadReq hits
system.cpu54.dcache.ReadReq_misses::.cpu54.data        42689                       # number of ReadReq misses
system.cpu54.dcache.ReadReq_misses::total        42689                       # number of ReadReq misses
system.cpu54.dcache.ReadReq_accesses::.cpu54.data      1652336                       # number of ReadReq accesses(hits+misses)
system.cpu54.dcache.ReadReq_accesses::total      1652336                       # number of ReadReq accesses(hits+misses)
system.cpu54.dcache.ReadReq_miss_rate::.cpu54.data     0.025836                       # miss rate for ReadReq accesses
system.cpu54.dcache.ReadReq_miss_rate::total     0.025836                       # miss rate for ReadReq accesses
system.cpu54.dcache.WriteReq_hits::.cpu54.data       899055                       # number of WriteReq hits
system.cpu54.dcache.WriteReq_hits::total       899055                       # number of WriteReq hits
system.cpu54.dcache.WriteReq_misses::.cpu54.data        10372                       # number of WriteReq misses
system.cpu54.dcache.WriteReq_misses::total        10372                       # number of WriteReq misses
system.cpu54.dcache.WriteReq_accesses::.cpu54.data       909427                       # number of WriteReq accesses(hits+misses)
system.cpu54.dcache.WriteReq_accesses::total       909427                       # number of WriteReq accesses(hits+misses)
system.cpu54.dcache.WriteReq_miss_rate::.cpu54.data     0.011405                       # miss rate for WriteReq accesses
system.cpu54.dcache.WriteReq_miss_rate::total     0.011405                       # miss rate for WriteReq accesses
system.cpu54.dcache.SoftPFReq_hits::.cpu54.data           73                       # number of SoftPFReq hits
system.cpu54.dcache.SoftPFReq_hits::total           73                       # number of SoftPFReq hits
system.cpu54.dcache.SoftPFReq_misses::.cpu54.data          202                       # number of SoftPFReq misses
system.cpu54.dcache.SoftPFReq_misses::total          202                       # number of SoftPFReq misses
system.cpu54.dcache.SoftPFReq_accesses::.cpu54.data          275                       # number of SoftPFReq accesses(hits+misses)
system.cpu54.dcache.SoftPFReq_accesses::total          275                       # number of SoftPFReq accesses(hits+misses)
system.cpu54.dcache.SoftPFReq_miss_rate::.cpu54.data     0.734545                       # miss rate for SoftPFReq accesses
system.cpu54.dcache.SoftPFReq_miss_rate::total     0.734545                       # miss rate for SoftPFReq accesses
system.cpu54.dcache.SoftPFExReq_hits::.cpu54.data        19339                       # number of SoftPFExReq hits
system.cpu54.dcache.SoftPFExReq_hits::total        19339                       # number of SoftPFExReq hits
system.cpu54.dcache.SoftPFExReq_misses::.cpu54.data         2809                       # number of SoftPFExReq misses
system.cpu54.dcache.SoftPFExReq_misses::total         2809                       # number of SoftPFExReq misses
system.cpu54.dcache.SoftPFExReq_accesses::.cpu54.data        22148                       # number of SoftPFExReq accesses(hits+misses)
system.cpu54.dcache.SoftPFExReq_accesses::total        22148                       # number of SoftPFExReq accesses(hits+misses)
system.cpu54.dcache.SoftPFExReq_miss_rate::.cpu54.data     0.126829                       # miss rate for SoftPFExReq accesses
system.cpu54.dcache.SoftPFExReq_miss_rate::total     0.126829                       # miss rate for SoftPFExReq accesses
system.cpu54.dcache.WriteLineReq_hits::.cpu54.data          264                       # number of WriteLineReq hits
system.cpu54.dcache.WriteLineReq_hits::total          264                       # number of WriteLineReq hits
system.cpu54.dcache.WriteLineReq_misses::.cpu54.data         4681                       # number of WriteLineReq misses
system.cpu54.dcache.WriteLineReq_misses::total         4681                       # number of WriteLineReq misses
system.cpu54.dcache.WriteLineReq_accesses::.cpu54.data         4945                       # number of WriteLineReq accesses(hits+misses)
system.cpu54.dcache.WriteLineReq_accesses::total         4945                       # number of WriteLineReq accesses(hits+misses)
system.cpu54.dcache.WriteLineReq_miss_rate::.cpu54.data     0.946613                       # miss rate for WriteLineReq accesses
system.cpu54.dcache.WriteLineReq_miss_rate::total     0.946613                       # miss rate for WriteLineReq accesses
system.cpu54.dcache.LoadLockedReq_hits::.cpu54.data        22907                       # number of LoadLockedReq hits
system.cpu54.dcache.LoadLockedReq_hits::total        22907                       # number of LoadLockedReq hits
system.cpu54.dcache.LoadLockedReq_misses::.cpu54.data         1051                       # number of LoadLockedReq misses
system.cpu54.dcache.LoadLockedReq_misses::total         1051                       # number of LoadLockedReq misses
system.cpu54.dcache.LoadLockedReq_accesses::.cpu54.data        23958                       # number of LoadLockedReq accesses(hits+misses)
system.cpu54.dcache.LoadLockedReq_accesses::total        23958                       # number of LoadLockedReq accesses(hits+misses)
system.cpu54.dcache.LoadLockedReq_miss_rate::.cpu54.data     0.043868                       # miss rate for LoadLockedReq accesses
system.cpu54.dcache.LoadLockedReq_miss_rate::total     0.043868                       # miss rate for LoadLockedReq accesses
system.cpu54.dcache.StoreCondReq_hits::.cpu54.data        22747                       # number of StoreCondReq hits
system.cpu54.dcache.StoreCondReq_hits::total        22747                       # number of StoreCondReq hits
system.cpu54.dcache.StoreCondReq_misses::.cpu54.data          109                       # number of StoreCondReq misses
system.cpu54.dcache.StoreCondReq_misses::total          109                       # number of StoreCondReq misses
system.cpu54.dcache.StoreCondReq_accesses::.cpu54.data        22856                       # number of StoreCondReq accesses(hits+misses)
system.cpu54.dcache.StoreCondReq_accesses::total        22856                       # number of StoreCondReq accesses(hits+misses)
system.cpu54.dcache.StoreCondReq_miss_rate::.cpu54.data     0.004769                       # miss rate for StoreCondReq accesses
system.cpu54.dcache.StoreCondReq_miss_rate::total     0.004769                       # miss rate for StoreCondReq accesses
system.cpu54.dcache.tags.pwrStateResidencyTicks::UNDEFINED 7072294088268                       # Cumulative time (in ticks) in various power states
system.cpu54.dcache.tags.tagsinuse         307.599278                       # Cycle average of tags in use
system.cpu54.dcache.tags.total_refs           2640543                       # Total number of references to valid blocks.
system.cpu54.dcache.tags.sampled_refs           57411                       # Sample count of references to valid blocks.
system.cpu54.dcache.tags.avg_refs           45.993677                       # Average number of references to valid blocks.
system.cpu54.dcache.tags.warmup_cycle    4132608782256                       # Cycle when the warmup percentage was hit.
system.cpu54.dcache.tags.occ_blocks::.cpu54.data   307.599278                       # Average occupied blocks per requestor
system.cpu54.dcache.tags.occ_percent::.cpu54.data     0.300390                       # Average percentage of cache occupancy
system.cpu54.dcache.tags.occ_percent::total     0.300390                       # Average percentage of cache occupancy
system.cpu54.dcache.tags.occ_task_id_blocks::1024          703                       # Occupied blocks per task id
system.cpu54.dcache.tags.age_task_id_blocks_1024::4          703                       # Occupied blocks per task id
system.cpu54.dcache.tags.occ_task_id_percent::1024     0.686523                       # Percentage of cache occupancy per task id
system.cpu54.dcache.tags.tag_accesses         5340185                       # Number of tag accesses
system.cpu54.dcache.tags.data_accesses        5340185                       # Number of data accesses

---------- End Simulation Statistics   ----------
