
---------- Begin Simulation Statistics ----------
final_tick                               1980044326960                       # Number of ticks from beginning of simulation (restored from checkpoints and never reset)
host_inst_rate                                 559549                       # Simulator instruction rate (inst/s)
host_mem_usage                               17383456                       # Number of bytes of host memory used
host_op_rate                                   653784                       # Simulator op (including micro ops) rate (op/s)
host_seconds                                  2401.98                       # Real time elapsed on the host
host_tick_rate                              824336859                       # Simulator tick rate (ticks/s)
sim_freq                                 1000000000000                       # Frequency of simulated ticks
sim_insts                                  1344027129                       # Number of instructions simulated
sim_ops                                    1570379713                       # Number of ops (including micro ops) simulated
sim_seconds                                  1.980044                       # Number of seconds simulated
sim_ticks                                1980044326960                       # Number of ticks simulated
system.cpu0.Branches                        118865666                       # Number of branches fetched
system.cpu0.committedInsts                  508027264                       # Number of instructions committed
system.cpu0.committedOps                    583048345                       # Number of ops (including micro ops) committed
system.cpu0.dtb.accesses                    181958987                       # DTB accesses
system.cpu0.dtb.align_faults                        0                       # Number of TLB faults due to alignment restrictions
system.cpu0.dtb.domain_faults                       0                       # Number of TLB faults due to domain restrictions
system.cpu0.dtb.flush_entries                    5063                       # Number of entries that have been flushed from TLB
system.cpu0.dtb.flush_tlb                          16                       # Number of times complete TLB was flushed
system.cpu0.dtb.flush_tlb_asid                    524                       # Number of times TLB was flushed by ASID
system.cpu0.dtb.flush_tlb_mva                    1467                       # Number of times TLB was flushed by MVA
system.cpu0.dtb.flush_tlb_mva_asid              61940                       # Number of times TLB was flushed by MVA & ASID
system.cpu0.dtb.hits                        181895017                       # DTB hits
system.cpu0.dtb.inst_accesses                       0                       # ITB inst accesses
system.cpu0.dtb.inst_hits                           0                       # ITB inst hits
system.cpu0.dtb.inst_misses                         0                       # ITB inst misses
system.cpu0.dtb.misses                          63970                       # DTB misses
system.cpu0.dtb.perms_faults                     1514                       # Number of TLB faults due to permissions restrictions
system.cpu0.dtb.prefetch_faults                 16809                       # Number of TLB faults due to prefetch
system.cpu0.dtb.read_accesses                86909860                       # DTB read accesses
system.cpu0.dtb.read_hits                    86855023                       # DTB read hits
system.cpu0.dtb.read_misses                     54837                       # DTB read misses
system.cpu0.dtb.stage2_mmu.stage2_tlb.accesses            0                       # DTB accesses
system.cpu0.dtb.stage2_mmu.stage2_tlb.align_faults            0                       # Number of TLB faults due to alignment restrictions
system.cpu0.dtb.stage2_mmu.stage2_tlb.domain_faults            0                       # Number of TLB faults due to domain restrictions
system.cpu0.dtb.stage2_mmu.stage2_tlb.flush_entries            0                       # Number of entries that have been flushed from TLB
system.cpu0.dtb.stage2_mmu.stage2_tlb.flush_tlb            0                       # Number of times complete TLB was flushed
system.cpu0.dtb.stage2_mmu.stage2_tlb.flush_tlb_asid            0                       # Number of times TLB was flushed by ASID
system.cpu0.dtb.stage2_mmu.stage2_tlb.flush_tlb_mva            0                       # Number of times TLB was flushed by MVA
system.cpu0.dtb.stage2_mmu.stage2_tlb.flush_tlb_mva_asid            0                       # Number of times TLB was flushed by MVA & ASID
system.cpu0.dtb.stage2_mmu.stage2_tlb.hits            0                       # DTB hits
system.cpu0.dtb.stage2_mmu.stage2_tlb.inst_accesses            0                       # ITB inst accesses
system.cpu0.dtb.stage2_mmu.stage2_tlb.inst_hits            0                       # ITB inst hits
system.cpu0.dtb.stage2_mmu.stage2_tlb.inst_misses            0                       # ITB inst misses
system.cpu0.dtb.stage2_mmu.stage2_tlb.misses            0                       # DTB misses
system.cpu0.dtb.stage2_mmu.stage2_tlb.perms_faults            0                       # Number of TLB faults due to permissions restrictions
system.cpu0.dtb.stage2_mmu.stage2_tlb.prefetch_faults            0                       # Number of TLB faults due to prefetch
system.cpu0.dtb.stage2_mmu.stage2_tlb.read_accesses            0                       # DTB read accesses
system.cpu0.dtb.stage2_mmu.stage2_tlb.read_hits            0                       # DTB read hits
system.cpu0.dtb.stage2_mmu.stage2_tlb.read_misses            0                       # DTB read misses
system.cpu0.dtb.stage2_mmu.stage2_tlb.walker.walkRequestOrigin_Requested::Data            0                       # Table walker requests started/completed, data/inst
system.cpu0.dtb.stage2_mmu.stage2_tlb.walker.walkRequestOrigin_Requested::Inst            0                       # Table walker requests started/completed, data/inst
system.cpu0.dtb.stage2_mmu.stage2_tlb.walker.walkRequestOrigin_Requested::total            0                       # Table walker requests started/completed, data/inst
system.cpu0.dtb.stage2_mmu.stage2_tlb.walker.walkRequestOrigin_Completed::Data            0                       # Table walker requests started/completed, data/inst
system.cpu0.dtb.stage2_mmu.stage2_tlb.walker.walkRequestOrigin_Completed::Inst            0                       # Table walker requests started/completed, data/inst
system.cpu0.dtb.stage2_mmu.stage2_tlb.walker.walkRequestOrigin_Completed::total            0                       # Table walker requests started/completed, data/inst
system.cpu0.dtb.stage2_mmu.stage2_tlb.walker.walkRequestOrigin::total            0                       # Table walker requests started/completed, data/inst
system.cpu0.dtb.stage2_mmu.stage2_tlb.walker.walks            0                       # Table walker walks requested
system.cpu0.dtb.stage2_mmu.stage2_tlb.write_accesses            0                       # DTB write accesses
system.cpu0.dtb.stage2_mmu.stage2_tlb.write_hits            0                       # DTB write hits
system.cpu0.dtb.stage2_mmu.stage2_tlb.write_misses            0                       # DTB write misses
system.cpu0.dtb.walker.walkPageSizes::4K        59127     97.11%     97.11% # Table walker page sizes translated
system.cpu0.dtb.walker.walkPageSizes::2M         1228      2.02%     99.13% # Table walker page sizes translated
system.cpu0.dtb.walker.walkPageSizes::1G          531      0.87%    100.00% # Table walker page sizes translated
system.cpu0.dtb.walker.walkPageSizes::total        60886                       # Table walker page sizes translated
system.cpu0.dtb.walker.walkRequestOrigin_Requested::Data        63970                       # Table walker requests started/completed, data/inst
system.cpu0.dtb.walker.walkRequestOrigin_Requested::Inst            0                       # Table walker requests started/completed, data/inst
system.cpu0.dtb.walker.walkRequestOrigin_Requested::total        63970                       # Table walker requests started/completed, data/inst
system.cpu0.dtb.walker.walkRequestOrigin_Completed::Data        60886                       # Table walker requests started/completed, data/inst
system.cpu0.dtb.walker.walkRequestOrigin_Completed::Inst            0                       # Table walker requests started/completed, data/inst
system.cpu0.dtb.walker.walkRequestOrigin_Completed::total        60886                       # Table walker requests started/completed, data/inst
system.cpu0.dtb.walker.walkRequestOrigin::total       124856                       # Table walker requests started/completed, data/inst
system.cpu0.dtb.walker.walkWaitTime::samples        63970                       # Table walker wait (enqueue to first request) latency
system.cpu0.dtb.walker.walkWaitTime::0          63970    100.00%    100.00% # Table walker wait (enqueue to first request) latency
system.cpu0.dtb.walker.walkWaitTime::total        63970                       # Table walker wait (enqueue to first request) latency
system.cpu0.dtb.walker.walks                    63970                       # Table walker walks requested
system.cpu0.dtb.walker.walksLong                63970                       # Table walker walks initiated with long descriptors
system.cpu0.dtb.walker.walksPending::samples     13866080                       # Table walker pending requests distribution
system.cpu0.dtb.walker.walksPending::0       13866080    100.00%    100.00% # Table walker pending requests distribution
system.cpu0.dtb.walker.walksPending::total     13866080                       # Table walker pending requests distribution
system.cpu0.dtb.write_accesses               95049127                       # DTB write accesses
system.cpu0.dtb.write_hits                   95039994                       # DTB write hits
system.cpu0.dtb.write_misses                     9133                       # DTB write misses
system.cpu0.idle_fraction                    0.534741                       # Percentage of idle cycles
system.cpu0.itb.accesses                    507970908                       # DTB accesses
system.cpu0.itb.align_faults                        0                       # Number of TLB faults due to alignment restrictions
system.cpu0.itb.domain_faults                       0                       # Number of TLB faults due to domain restrictions
system.cpu0.itb.flush_entries                    2324                       # Number of entries that have been flushed from TLB
system.cpu0.itb.flush_tlb                          16                       # Number of times complete TLB was flushed
system.cpu0.itb.flush_tlb_asid                    524                       # Number of times TLB was flushed by ASID
system.cpu0.itb.flush_tlb_mva                    1467                       # Number of times TLB was flushed by MVA
system.cpu0.itb.flush_tlb_mva_asid              61940                       # Number of times TLB was flushed by MVA & ASID
system.cpu0.itb.hits                        507769619                       # DTB hits
system.cpu0.itb.inst_accesses               507970908                       # ITB inst accesses
system.cpu0.itb.inst_hits                   507769619                       # ITB inst hits
system.cpu0.itb.inst_misses                    201289                       # ITB inst misses
system.cpu0.itb.misses                         201289                       # DTB misses
system.cpu0.itb.perms_faults                        0                       # Number of TLB faults due to permissions restrictions
system.cpu0.itb.prefetch_faults                     0                       # Number of TLB faults due to prefetch
system.cpu0.itb.read_accesses                       0                       # DTB read accesses
system.cpu0.itb.read_hits                           0                       # DTB read hits
system.cpu0.itb.read_misses                         0                       # DTB read misses
system.cpu0.itb.stage2_mmu.stage2_tlb.accesses            0                       # DTB accesses
system.cpu0.itb.stage2_mmu.stage2_tlb.align_faults            0                       # Number of TLB faults due to alignment restrictions
system.cpu0.itb.stage2_mmu.stage2_tlb.domain_faults            0                       # Number of TLB faults due to domain restrictions
system.cpu0.itb.stage2_mmu.stage2_tlb.flush_entries            0                       # Number of entries that have been flushed from TLB
system.cpu0.itb.stage2_mmu.stage2_tlb.flush_tlb            0                       # Number of times complete TLB was flushed
system.cpu0.itb.stage2_mmu.stage2_tlb.flush_tlb_asid            0                       # Number of times TLB was flushed by ASID
system.cpu0.itb.stage2_mmu.stage2_tlb.flush_tlb_mva            0                       # Number of times TLB was flushed by MVA
system.cpu0.itb.stage2_mmu.stage2_tlb.flush_tlb_mva_asid            0                       # Number of times TLB was flushed by MVA & ASID
system.cpu0.itb.stage2_mmu.stage2_tlb.hits            0                       # DTB hits
system.cpu0.itb.stage2_mmu.stage2_tlb.inst_accesses            0                       # ITB inst accesses
system.cpu0.itb.stage2_mmu.stage2_tlb.inst_hits            0                       # ITB inst hits
system.cpu0.itb.stage2_mmu.stage2_tlb.inst_misses            0                       # ITB inst misses
system.cpu0.itb.stage2_mmu.stage2_tlb.misses            0                       # DTB misses
system.cpu0.itb.stage2_mmu.stage2_tlb.perms_faults            0                       # Number of TLB faults due to permissions restrictions
system.cpu0.itb.stage2_mmu.stage2_tlb.prefetch_faults            0                       # Number of TLB faults due to prefetch
system.cpu0.itb.stage2_mmu.stage2_tlb.read_accesses            0                       # DTB read accesses
system.cpu0.itb.stage2_mmu.stage2_tlb.read_hits            0                       # DTB read hits
system.cpu0.itb.stage2_mmu.stage2_tlb.read_misses            0                       # DTB read misses
system.cpu0.itb.stage2_mmu.stage2_tlb.walker.walkRequestOrigin_Requested::Data            0                       # Table walker requests started/completed, data/inst
system.cpu0.itb.stage2_mmu.stage2_tlb.walker.walkRequestOrigin_Requested::Inst            0                       # Table walker requests started/completed, data/inst
system.cpu0.itb.stage2_mmu.stage2_tlb.walker.walkRequestOrigin_Requested::total            0                       # Table walker requests started/completed, data/inst
system.cpu0.itb.stage2_mmu.stage2_tlb.walker.walkRequestOrigin_Completed::Data            0                       # Table walker requests started/completed, data/inst
system.cpu0.itb.stage2_mmu.stage2_tlb.walker.walkRequestOrigin_Completed::Inst            0                       # Table walker requests started/completed, data/inst
system.cpu0.itb.stage2_mmu.stage2_tlb.walker.walkRequestOrigin_Completed::total            0                       # Table walker requests started/completed, data/inst
system.cpu0.itb.stage2_mmu.stage2_tlb.walker.walkRequestOrigin::total            0                       # Table walker requests started/completed, data/inst
system.cpu0.itb.stage2_mmu.stage2_tlb.walker.walks            0                       # Table walker walks requested
system.cpu0.itb.stage2_mmu.stage2_tlb.write_accesses            0                       # DTB write accesses
system.cpu0.itb.stage2_mmu.stage2_tlb.write_hits            0                       # DTB write hits
system.cpu0.itb.stage2_mmu.stage2_tlb.write_misses            0                       # DTB write misses
system.cpu0.itb.walker.walkPageSizes::4K       198840     99.26%     99.26% # Table walker page sizes translated
system.cpu0.itb.walker.walkPageSizes::2M         1476      0.74%    100.00% # Table walker page sizes translated
system.cpu0.itb.walker.walkPageSizes::total       200316                       # Table walker page sizes translated
system.cpu0.itb.walker.walkRequestOrigin_Requested::Data            0                       # Table walker requests started/completed, data/inst
system.cpu0.itb.walker.walkRequestOrigin_Requested::Inst       201289                       # Table walker requests started/completed, data/inst
system.cpu0.itb.walker.walkRequestOrigin_Requested::total       201289                       # Table walker requests started/completed, data/inst
system.cpu0.itb.walker.walkRequestOrigin_Completed::Data            0                       # Table walker requests started/completed, data/inst
system.cpu0.itb.walker.walkRequestOrigin_Completed::Inst       200316                       # Table walker requests started/completed, data/inst
system.cpu0.itb.walker.walkRequestOrigin_Completed::total       200316                       # Table walker requests started/completed, data/inst
system.cpu0.itb.walker.walkRequestOrigin::total       401605                       # Table walker requests started/completed, data/inst
system.cpu0.itb.walker.walkWaitTime::samples       201289                       # Table walker wait (enqueue to first request) latency
system.cpu0.itb.walker.walkWaitTime::0         201289    100.00%    100.00% # Table walker wait (enqueue to first request) latency
system.cpu0.itb.walker.walkWaitTime::total       201289                       # Table walker wait (enqueue to first request) latency
system.cpu0.itb.walker.walks                   201289                       # Table walker walks requested
system.cpu0.itb.walker.walksLong               201289                       # Table walker walks initiated with long descriptors
system.cpu0.itb.walker.walksPending::samples     13858180                       # Table walker pending requests distribution
system.cpu0.itb.walker.walksPending::0       13858180    100.00%    100.00% # Table walker pending requests distribution
system.cpu0.itb.walker.walksPending::total     13858180                       # Table walker pending requests distribution
system.cpu0.itb.write_accesses                      0                       # DTB write accesses
system.cpu0.itb.write_hits                          0                       # DTB write hits
system.cpu0.itb.write_misses                        0                       # DTB write misses
system.cpu0.kern.inst.arm                           0                       # number of arm instructions executed
system.cpu0.kern.inst.quiesce                    4251                       # number of quiesce instructions executed
system.cpu0.not_idle_fraction                0.465259                       # Percentage of non-idle cycles
system.cpu0.numCycles                      1253196864                       # number of cpu cycles simulated
system.cpu0.numWorkItemsCompleted                   0                       # number of work items this cpu completed
system.cpu0.numWorkItemsStarted                     0                       # number of work items this cpu started
system.cpu0.num_busy_cycles              583061711.731716                       # Number of busy cycles
system.cpu0.num_cc_register_reads           144237910                       # number of times the CC registers were read
system.cpu0.num_cc_register_writes          143387157                       # number of times the CC registers were written
system.cpu0.num_conditional_control_insts     73380526                       # number of instructions that are conditional controls
system.cpu0.num_fp_alu_accesses                     0                       # Number of float alu accesses
system.cpu0.num_fp_insts                            0                       # number of float instructions
system.cpu0.num_fp_register_reads                   0                       # number of times the floating registers were read
system.cpu0.num_fp_register_writes                  0                       # number of times the floating registers were written
system.cpu0.num_func_calls                   26723456                       # number of times a function call or return occured
system.cpu0.num_idle_cycles              670135152.268284                       # Number of idle cycles
system.cpu0.num_int_alu_accesses            517688961                       # Number of integer alu accesses
system.cpu0.num_int_insts                   517688961                       # number of integer instructions
system.cpu0.num_int_register_reads          709999097                       # number of times the integer registers were read
system.cpu0.num_int_register_writes         390641763                       # number of times the integer registers were written
system.cpu0.num_load_insts                   86841238                       # Number of load instructions
system.cpu0.num_mem_refs                    181902554                       # number of memory refs
system.cpu0.num_store_insts                  95061316                       # Number of store instructions
system.cpu0.num_vec_alu_accesses               156530                       # Number of vector alu accesses
system.cpu0.num_vec_insts                      156530                       # number of vector instructions
system.cpu0.num_vec_register_reads             124219                       # number of times the vector registers were read
system.cpu0.num_vec_register_writes             36543                       # number of times the vector registers were written
system.cpu0.op_class::No_OpClass                44255      0.01%      0.01% # Class of executed instruction
system.cpu0.op_class::IntAlu                396454704     68.00%     68.00% # Class of executed instruction
system.cpu0.op_class::IntMult                 4612259      0.79%     68.79% # Class of executed instruction
system.cpu0.op_class::IntDiv                    28591      0.00%     68.80% # Class of executed instruction
system.cpu0.op_class::FloatAdd                      0      0.00%     68.80% # Class of executed instruction
system.cpu0.op_class::FloatCmp                      0      0.00%     68.80% # Class of executed instruction
system.cpu0.op_class::FloatCvt                      0      0.00%     68.80% # Class of executed instruction
system.cpu0.op_class::FloatMult                     0      0.00%     68.80% # Class of executed instruction
system.cpu0.op_class::FloatMultAcc                  0      0.00%     68.80% # Class of executed instruction
system.cpu0.op_class::FloatDiv                      0      0.00%     68.80% # Class of executed instruction
system.cpu0.op_class::FloatMisc                 18306      0.00%     68.80% # Class of executed instruction
system.cpu0.op_class::FloatSqrt                     0      0.00%     68.80% # Class of executed instruction
system.cpu0.op_class::SimdAdd                       5      0.00%     68.80% # Class of executed instruction
system.cpu0.op_class::SimdAddAcc                    0      0.00%     68.80% # Class of executed instruction
system.cpu0.op_class::SimdAlu                       4      0.00%     68.80% # Class of executed instruction
system.cpu0.op_class::SimdCmp                       4      0.00%     68.80% # Class of executed instruction
system.cpu0.op_class::SimdCvt                       0      0.00%     68.80% # Class of executed instruction
system.cpu0.op_class::SimdMisc                      4      0.00%     68.80% # Class of executed instruction
system.cpu0.op_class::SimdMult                      0      0.00%     68.80% # Class of executed instruction
system.cpu0.op_class::SimdMultAcc                   0      0.00%     68.80% # Class of executed instruction
system.cpu0.op_class::SimdShift                     0      0.00%     68.80% # Class of executed instruction
system.cpu0.op_class::SimdShiftAcc                  0      0.00%     68.80% # Class of executed instruction
system.cpu0.op_class::SimdDiv                       0      0.00%     68.80% # Class of executed instruction
system.cpu0.op_class::SimdSqrt                      0      0.00%     68.80% # Class of executed instruction
system.cpu0.op_class::SimdFloatAdd                  0      0.00%     68.80% # Class of executed instruction
system.cpu0.op_class::SimdFloatAlu                  0      0.00%     68.80% # Class of executed instruction
system.cpu0.op_class::SimdFloatCmp                  0      0.00%     68.80% # Class of executed instruction
system.cpu0.op_class::SimdFloatCvt                  0      0.00%     68.80% # Class of executed instruction
system.cpu0.op_class::SimdFloatDiv                  0      0.00%     68.80% # Class of executed instruction
system.cpu0.op_class::SimdFloatMisc                 0      0.00%     68.80% # Class of executed instruction
system.cpu0.op_class::SimdFloatMult                 0      0.00%     68.80% # Class of executed instruction
system.cpu0.op_class::SimdFloatMultAcc              0      0.00%     68.80% # Class of executed instruction
system.cpu0.op_class::SimdFloatSqrt                 0      0.00%     68.80% # Class of executed instruction
system.cpu0.op_class::SimdReduceAdd                 0      0.00%     68.80% # Class of executed instruction
system.cpu0.op_class::SimdReduceAlu                 0      0.00%     68.80% # Class of executed instruction
system.cpu0.op_class::SimdReduceCmp                 0      0.00%     68.80% # Class of executed instruction
system.cpu0.op_class::SimdFloatReduceAdd            0      0.00%     68.80% # Class of executed instruction
system.cpu0.op_class::SimdFloatReduceCmp            0      0.00%     68.80% # Class of executed instruction
system.cpu0.op_class::SimdAes                       0      0.00%     68.80% # Class of executed instruction
system.cpu0.op_class::SimdAesMix                    0      0.00%     68.80% # Class of executed instruction
system.cpu0.op_class::SimdSha1Hash                  0      0.00%     68.80% # Class of executed instruction
system.cpu0.op_class::SimdSha1Hash2                 0      0.00%     68.80% # Class of executed instruction
system.cpu0.op_class::SimdSha256Hash                0      0.00%     68.80% # Class of executed instruction
system.cpu0.op_class::SimdSha256Hash2               0      0.00%     68.80% # Class of executed instruction
system.cpu0.op_class::SimdShaSigma2                 0      0.00%     68.80% # Class of executed instruction
system.cpu0.op_class::SimdShaSigma3                 0      0.00%     68.80% # Class of executed instruction
system.cpu0.op_class::SimdPredAlu                   0      0.00%     68.80% # Class of executed instruction
system.cpu0.op_class::MemRead                86841238     14.89%     83.70% # Class of executed instruction
system.cpu0.op_class::MemWrite               95061316     16.30%    100.00% # Class of executed instruction
system.cpu0.op_class::FloatMemRead                  0      0.00%    100.00% # Class of executed instruction
system.cpu0.op_class::FloatMemWrite                 0      0.00%    100.00% # Class of executed instruction
system.cpu0.op_class::IprAccess                     0      0.00%    100.00% # Class of executed instruction
system.cpu0.op_class::InstPrefetch                  0      0.00%    100.00% # Class of executed instruction
system.cpu0.op_class::total                 583060686                       # Class of executed instruction
system.cpu1.Branches                         30718431                       # Number of branches fetched
system.cpu1.committedInsts                  138311199                       # Number of instructions committed
system.cpu1.committedOps                    163080644                       # Number of ops (including micro ops) committed
system.cpu1.dtb.accesses                     54569522                       # DTB accesses
system.cpu1.dtb.align_faults                        0                       # Number of TLB faults due to alignment restrictions
system.cpu1.dtb.domain_faults                       0                       # Number of TLB faults due to domain restrictions
system.cpu1.dtb.flush_entries                    6625                       # Number of entries that have been flushed from TLB
system.cpu1.dtb.flush_tlb                          11                       # Number of times complete TLB was flushed
system.cpu1.dtb.flush_tlb_asid                    524                       # Number of times TLB was flushed by ASID
system.cpu1.dtb.flush_tlb_mva                    1467                       # Number of times TLB was flushed by MVA
system.cpu1.dtb.flush_tlb_mva_asid              61940                       # Number of times TLB was flushed by MVA & ASID
system.cpu1.dtb.hits                         54499321                       # DTB hits
system.cpu1.dtb.inst_accesses                       0                       # ITB inst accesses
system.cpu1.dtb.inst_hits                           0                       # ITB inst hits
system.cpu1.dtb.inst_misses                         0                       # ITB inst misses
system.cpu1.dtb.misses                          70201                       # DTB misses
system.cpu1.dtb.perms_faults                     2929                       # Number of TLB faults due to permissions restrictions
system.cpu1.dtb.prefetch_faults                 18058                       # Number of TLB faults due to prefetch
system.cpu1.dtb.read_accesses                30859816                       # DTB read accesses
system.cpu1.dtb.read_hits                    30800627                       # DTB read hits
system.cpu1.dtb.read_misses                     59189                       # DTB read misses
system.cpu1.dtb.stage2_mmu.stage2_tlb.accesses            0                       # DTB accesses
system.cpu1.dtb.stage2_mmu.stage2_tlb.align_faults            0                       # Number of TLB faults due to alignment restrictions
system.cpu1.dtb.stage2_mmu.stage2_tlb.domain_faults            0                       # Number of TLB faults due to domain restrictions
system.cpu1.dtb.stage2_mmu.stage2_tlb.flush_entries            0                       # Number of entries that have been flushed from TLB
system.cpu1.dtb.stage2_mmu.stage2_tlb.flush_tlb            0                       # Number of times complete TLB was flushed
system.cpu1.dtb.stage2_mmu.stage2_tlb.flush_tlb_asid            0                       # Number of times TLB was flushed by ASID
system.cpu1.dtb.stage2_mmu.stage2_tlb.flush_tlb_mva            0                       # Number of times TLB was flushed by MVA
system.cpu1.dtb.stage2_mmu.stage2_tlb.flush_tlb_mva_asid            0                       # Number of times TLB was flushed by MVA & ASID
system.cpu1.dtb.stage2_mmu.stage2_tlb.hits            0                       # DTB hits
system.cpu1.dtb.stage2_mmu.stage2_tlb.inst_accesses            0                       # ITB inst accesses
system.cpu1.dtb.stage2_mmu.stage2_tlb.inst_hits            0                       # ITB inst hits
system.cpu1.dtb.stage2_mmu.stage2_tlb.inst_misses            0                       # ITB inst misses
system.cpu1.dtb.stage2_mmu.stage2_tlb.misses            0                       # DTB misses
system.cpu1.dtb.stage2_mmu.stage2_tlb.perms_faults            0                       # Number of TLB faults due to permissions restrictions
system.cpu1.dtb.stage2_mmu.stage2_tlb.prefetch_faults            0                       # Number of TLB faults due to prefetch
system.cpu1.dtb.stage2_mmu.stage2_tlb.read_accesses            0                       # DTB read accesses
system.cpu1.dtb.stage2_mmu.stage2_tlb.read_hits            0                       # DTB read hits
system.cpu1.dtb.stage2_mmu.stage2_tlb.read_misses            0                       # DTB read misses
system.cpu1.dtb.stage2_mmu.stage2_tlb.walker.walkRequestOrigin_Requested::Data            0                       # Table walker requests started/completed, data/inst
system.cpu1.dtb.stage2_mmu.stage2_tlb.walker.walkRequestOrigin_Requested::Inst            0                       # Table walker requests started/completed, data/inst
system.cpu1.dtb.stage2_mmu.stage2_tlb.walker.walkRequestOrigin_Requested::total            0                       # Table walker requests started/completed, data/inst
system.cpu1.dtb.stage2_mmu.stage2_tlb.walker.walkRequestOrigin_Completed::Data            0                       # Table walker requests started/completed, data/inst
system.cpu1.dtb.stage2_mmu.stage2_tlb.walker.walkRequestOrigin_Completed::Inst            0                       # Table walker requests started/completed, data/inst
system.cpu1.dtb.stage2_mmu.stage2_tlb.walker.walkRequestOrigin_Completed::total            0                       # Table walker requests started/completed, data/inst
system.cpu1.dtb.stage2_mmu.stage2_tlb.walker.walkRequestOrigin::total            0                       # Table walker requests started/completed, data/inst
system.cpu1.dtb.stage2_mmu.stage2_tlb.walker.walks            0                       # Table walker walks requested
system.cpu1.dtb.stage2_mmu.stage2_tlb.write_accesses            0                       # DTB write accesses
system.cpu1.dtb.stage2_mmu.stage2_tlb.write_hits            0                       # DTB write hits
system.cpu1.dtb.stage2_mmu.stage2_tlb.write_misses            0                       # DTB write misses
system.cpu1.dtb.walker.walkPageSizes::4K        64930     97.78%     97.78% # Table walker page sizes translated
system.cpu1.dtb.walker.walkPageSizes::2M         1019      1.53%     99.31% # Table walker page sizes translated
system.cpu1.dtb.walker.walkPageSizes::1G          457      0.69%    100.00% # Table walker page sizes translated
system.cpu1.dtb.walker.walkPageSizes::total        66406                       # Table walker page sizes translated
system.cpu1.dtb.walker.walkRequestOrigin_Requested::Data        70201                       # Table walker requests started/completed, data/inst
system.cpu1.dtb.walker.walkRequestOrigin_Requested::Inst            0                       # Table walker requests started/completed, data/inst
system.cpu1.dtb.walker.walkRequestOrigin_Requested::total        70201                       # Table walker requests started/completed, data/inst
system.cpu1.dtb.walker.walkRequestOrigin_Completed::Data        66406                       # Table walker requests started/completed, data/inst
system.cpu1.dtb.walker.walkRequestOrigin_Completed::Inst            0                       # Table walker requests started/completed, data/inst
system.cpu1.dtb.walker.walkRequestOrigin_Completed::total        66406                       # Table walker requests started/completed, data/inst
system.cpu1.dtb.walker.walkRequestOrigin::total       136607                       # Table walker requests started/completed, data/inst
system.cpu1.dtb.walker.walkWaitTime::samples        70201                       # Table walker wait (enqueue to first request) latency
system.cpu1.dtb.walker.walkWaitTime::0          70201    100.00%    100.00% # Table walker wait (enqueue to first request) latency
system.cpu1.dtb.walker.walkWaitTime::total        70201                       # Table walker wait (enqueue to first request) latency
system.cpu1.dtb.walker.walks                    70201                       # Table walker walks requested
system.cpu1.dtb.walker.walksLong                70201                       # Table walker walks initiated with long descriptors
system.cpu1.dtb.walker.walksPending::samples  -1006436900                       # Table walker pending requests distribution
system.cpu1.dtb.walker.walksPending::0    -1006436900    100.00%    100.00% # Table walker pending requests distribution
system.cpu1.dtb.walker.walksPending::total  -1006436900                       # Table walker pending requests distribution
system.cpu1.dtb.write_accesses               23709706                       # DTB write accesses
system.cpu1.dtb.write_hits                   23698694                       # DTB write hits
system.cpu1.dtb.write_misses                    11012                       # DTB write misses
system.cpu1.idle_fraction                    0.869856                       # Percentage of idle cycles
system.cpu1.itb.accesses                    138326887                       # DTB accesses
system.cpu1.itb.align_faults                        0                       # Number of TLB faults due to alignment restrictions
system.cpu1.itb.domain_faults                       0                       # Number of TLB faults due to domain restrictions
system.cpu1.itb.flush_entries                    3267                       # Number of entries that have been flushed from TLB
system.cpu1.itb.flush_tlb                          11                       # Number of times complete TLB was flushed
system.cpu1.itb.flush_tlb_asid                    524                       # Number of times TLB was flushed by ASID
system.cpu1.itb.flush_tlb_mva                    1467                       # Number of times TLB was flushed by MVA
system.cpu1.itb.flush_tlb_mva_asid              61940                       # Number of times TLB was flushed by MVA & ASID
system.cpu1.itb.hits                        138080032                       # DTB hits
system.cpu1.itb.inst_accesses               138326887                       # ITB inst accesses
system.cpu1.itb.inst_hits                   138080032                       # ITB inst hits
system.cpu1.itb.inst_misses                    246855                       # ITB inst misses
system.cpu1.itb.misses                         246855                       # DTB misses
system.cpu1.itb.perms_faults                        0                       # Number of TLB faults due to permissions restrictions
system.cpu1.itb.prefetch_faults                     0                       # Number of TLB faults due to prefetch
system.cpu1.itb.read_accesses                       0                       # DTB read accesses
system.cpu1.itb.read_hits                           0                       # DTB read hits
system.cpu1.itb.read_misses                         0                       # DTB read misses
system.cpu1.itb.stage2_mmu.stage2_tlb.accesses            0                       # DTB accesses
system.cpu1.itb.stage2_mmu.stage2_tlb.align_faults            0                       # Number of TLB faults due to alignment restrictions
system.cpu1.itb.stage2_mmu.stage2_tlb.domain_faults            0                       # Number of TLB faults due to domain restrictions
system.cpu1.itb.stage2_mmu.stage2_tlb.flush_entries            0                       # Number of entries that have been flushed from TLB
system.cpu1.itb.stage2_mmu.stage2_tlb.flush_tlb            0                       # Number of times complete TLB was flushed
system.cpu1.itb.stage2_mmu.stage2_tlb.flush_tlb_asid            0                       # Number of times TLB was flushed by ASID
system.cpu1.itb.stage2_mmu.stage2_tlb.flush_tlb_mva            0                       # Number of times TLB was flushed by MVA
system.cpu1.itb.stage2_mmu.stage2_tlb.flush_tlb_mva_asid            0                       # Number of times TLB was flushed by MVA & ASID
system.cpu1.itb.stage2_mmu.stage2_tlb.hits            0                       # DTB hits
system.cpu1.itb.stage2_mmu.stage2_tlb.inst_accesses            0                       # ITB inst accesses
system.cpu1.itb.stage2_mmu.stage2_tlb.inst_hits            0                       # ITB inst hits
system.cpu1.itb.stage2_mmu.stage2_tlb.inst_misses            0                       # ITB inst misses
system.cpu1.itb.stage2_mmu.stage2_tlb.misses            0                       # DTB misses
system.cpu1.itb.stage2_mmu.stage2_tlb.perms_faults            0                       # Number of TLB faults due to permissions restrictions
system.cpu1.itb.stage2_mmu.stage2_tlb.prefetch_faults            0                       # Number of TLB faults due to prefetch
system.cpu1.itb.stage2_mmu.stage2_tlb.read_accesses            0                       # DTB read accesses
system.cpu1.itb.stage2_mmu.stage2_tlb.read_hits            0                       # DTB read hits
system.cpu1.itb.stage2_mmu.stage2_tlb.read_misses            0                       # DTB read misses
system.cpu1.itb.stage2_mmu.stage2_tlb.walker.walkRequestOrigin_Requested::Data            0                       # Table walker requests started/completed, data/inst
system.cpu1.itb.stage2_mmu.stage2_tlb.walker.walkRequestOrigin_Requested::Inst            0                       # Table walker requests started/completed, data/inst
system.cpu1.itb.stage2_mmu.stage2_tlb.walker.walkRequestOrigin_Requested::total            0                       # Table walker requests started/completed, data/inst
system.cpu1.itb.stage2_mmu.stage2_tlb.walker.walkRequestOrigin_Completed::Data            0                       # Table walker requests started/completed, data/inst
system.cpu1.itb.stage2_mmu.stage2_tlb.walker.walkRequestOrigin_Completed::Inst            0                       # Table walker requests started/completed, data/inst
system.cpu1.itb.stage2_mmu.stage2_tlb.walker.walkRequestOrigin_Completed::total            0                       # Table walker requests started/completed, data/inst
system.cpu1.itb.stage2_mmu.stage2_tlb.walker.walkRequestOrigin::total            0                       # Table walker requests started/completed, data/inst
system.cpu1.itb.stage2_mmu.stage2_tlb.walker.walks            0                       # Table walker walks requested
system.cpu1.itb.stage2_mmu.stage2_tlb.write_accesses            0                       # DTB write accesses
system.cpu1.itb.stage2_mmu.stage2_tlb.write_hits            0                       # DTB write hits
system.cpu1.itb.stage2_mmu.stage2_tlb.write_misses            0                       # DTB write misses
system.cpu1.itb.walker.walkPageSizes::4K       243520     99.13%     99.13% # Table walker page sizes translated
system.cpu1.itb.walker.walkPageSizes::2M         2136      0.87%    100.00% # Table walker page sizes translated
system.cpu1.itb.walker.walkPageSizes::total       245656                       # Table walker page sizes translated
system.cpu1.itb.walker.walkRequestOrigin_Requested::Data            0                       # Table walker requests started/completed, data/inst
system.cpu1.itb.walker.walkRequestOrigin_Requested::Inst       246855                       # Table walker requests started/completed, data/inst
system.cpu1.itb.walker.walkRequestOrigin_Requested::total       246855                       # Table walker requests started/completed, data/inst
system.cpu1.itb.walker.walkRequestOrigin_Completed::Data            0                       # Table walker requests started/completed, data/inst
system.cpu1.itb.walker.walkRequestOrigin_Completed::Inst       245656                       # Table walker requests started/completed, data/inst
system.cpu1.itb.walker.walkRequestOrigin_Completed::total       245656                       # Table walker requests started/completed, data/inst
system.cpu1.itb.walker.walkRequestOrigin::total       492511                       # Table walker requests started/completed, data/inst
system.cpu1.itb.walker.walkWaitTime::samples       246855                       # Table walker wait (enqueue to first request) latency
system.cpu1.itb.walker.walkWaitTime::0         246855    100.00%    100.00% # Table walker wait (enqueue to first request) latency
system.cpu1.itb.walker.walkWaitTime::total       246855                       # Table walker wait (enqueue to first request) latency
system.cpu1.itb.walker.walks                   246855                       # Table walker walks requested
system.cpu1.itb.walker.walksLong               246855                       # Table walker walks initiated with long descriptors
system.cpu1.itb.walker.walksPending::samples  -1006444800                       # Table walker pending requests distribution
system.cpu1.itb.walker.walksPending::0    -1006444800    100.00%    100.00% # Table walker pending requests distribution
system.cpu1.itb.walker.walksPending::total  -1006444800                       # Table walker pending requests distribution
system.cpu1.itb.write_accesses                      0                       # DTB write accesses
system.cpu1.itb.write_hits                          0                       # DTB write hits
system.cpu1.itb.write_misses                        0                       # DTB write misses
system.cpu1.kern.inst.arm                           0                       # number of arm instructions executed
system.cpu1.kern.inst.quiesce                    2022                       # number of quiesce instructions executed
system.cpu1.not_idle_fraction                0.130144                       # Percentage of non-idle cycles
system.cpu1.numCycles                      1253194635                       # number of cpu cycles simulated
system.cpu1.numWorkItemsCompleted                   0                       # number of work items this cpu completed
system.cpu1.numWorkItemsStarted                     0                       # number of work items this cpu started
system.cpu1.num_busy_cycles              163095989.962609                       # Number of busy cycles
system.cpu1.num_cc_register_reads            34638991                       # number of times the CC registers were read
system.cpu1.num_cc_register_writes           32641797                       # number of times the CC registers were written
system.cpu1.num_conditional_control_insts     20570829                       # number of instructions that are conditional controls
system.cpu1.num_fp_alu_accesses                     0                       # Number of float alu accesses
system.cpu1.num_fp_insts                            0                       # number of float instructions
system.cpu1.num_fp_register_reads                   0                       # number of times the floating registers were read
system.cpu1.num_fp_register_writes                  0                       # number of times the floating registers were written
system.cpu1.num_func_calls                    8357900                       # number of times a function call or return occured
system.cpu1.num_idle_cycles              1090098645.037391                       # Number of idle cycles
system.cpu1.num_int_alu_accesses            151118059                       # Number of integer alu accesses
system.cpu1.num_int_insts                   151118059                       # number of integer instructions
system.cpu1.num_int_register_reads          201870993                       # number of times the integer registers were read
system.cpu1.num_int_register_writes         119143430                       # number of times the integer registers were written
system.cpu1.num_load_insts                   30813095                       # Number of load instructions
system.cpu1.num_mem_refs                     54518358                       # number of memory refs
system.cpu1.num_store_insts                  23705263                       # Number of store instructions
system.cpu1.num_vec_alu_accesses               365315                       # Number of vector alu accesses
system.cpu1.num_vec_insts                      365315                       # number of vector instructions
system.cpu1.num_vec_register_reads             262693                       # number of times the vector registers were read
system.cpu1.num_vec_register_writes            123752                       # number of times the vector registers were written
system.cpu1.op_class::No_OpClass                44742      0.03%      0.03% # Class of executed instruction
system.cpu1.op_class::IntAlu                108141775     66.31%     66.33% # Class of executed instruction
system.cpu1.op_class::IntMult                  257210      0.16%     66.49% # Class of executed instruction
system.cpu1.op_class::IntDiv                    43404      0.03%     66.52% # Class of executed instruction
system.cpu1.op_class::FloatAdd                      2      0.00%     66.52% # Class of executed instruction
system.cpu1.op_class::FloatCmp                      0      0.00%     66.52% # Class of executed instruction
system.cpu1.op_class::FloatCvt                      1      0.00%     66.52% # Class of executed instruction
system.cpu1.op_class::FloatMult                     0      0.00%     66.52% # Class of executed instruction
system.cpu1.op_class::FloatMultAcc                  0      0.00%     66.52% # Class of executed instruction
system.cpu1.op_class::FloatDiv                      1      0.00%     66.52% # Class of executed instruction
system.cpu1.op_class::FloatMisc                 89773      0.06%     66.57% # Class of executed instruction
system.cpu1.op_class::FloatSqrt                     0      0.00%     66.57% # Class of executed instruction
system.cpu1.op_class::SimdAdd                      12      0.00%     66.57% # Class of executed instruction
system.cpu1.op_class::SimdAddAcc                    0      0.00%     66.57% # Class of executed instruction
system.cpu1.op_class::SimdAlu                      20      0.00%     66.57% # Class of executed instruction
system.cpu1.op_class::SimdCmp                       8      0.00%     66.57% # Class of executed instruction
system.cpu1.op_class::SimdCvt                       0      0.00%     66.57% # Class of executed instruction
system.cpu1.op_class::SimdMisc                      9      0.00%     66.57% # Class of executed instruction
system.cpu1.op_class::SimdMult                      0      0.00%     66.57% # Class of executed instruction
system.cpu1.op_class::SimdMultAcc                   0      0.00%     66.57% # Class of executed instruction
system.cpu1.op_class::SimdShift                     0      0.00%     66.57% # Class of executed instruction
system.cpu1.op_class::SimdShiftAcc                  0      0.00%     66.57% # Class of executed instruction
system.cpu1.op_class::SimdDiv                       0      0.00%     66.57% # Class of executed instruction
system.cpu1.op_class::SimdSqrt                      0      0.00%     66.57% # Class of executed instruction
system.cpu1.op_class::SimdFloatAdd                  0      0.00%     66.57% # Class of executed instruction
system.cpu1.op_class::SimdFloatAlu                  0      0.00%     66.57% # Class of executed instruction
system.cpu1.op_class::SimdFloatCmp                  0      0.00%     66.57% # Class of executed instruction
system.cpu1.op_class::SimdFloatCvt                  0      0.00%     66.57% # Class of executed instruction
system.cpu1.op_class::SimdFloatDiv                  0      0.00%     66.57% # Class of executed instruction
system.cpu1.op_class::SimdFloatMisc                 0      0.00%     66.57% # Class of executed instruction
system.cpu1.op_class::SimdFloatMult                 0      0.00%     66.57% # Class of executed instruction
system.cpu1.op_class::SimdFloatMultAcc              0      0.00%     66.57% # Class of executed instruction
system.cpu1.op_class::SimdFloatSqrt                 0      0.00%     66.57% # Class of executed instruction
system.cpu1.op_class::SimdReduceAdd                 0      0.00%     66.57% # Class of executed instruction
system.cpu1.op_class::SimdReduceAlu                 0      0.00%     66.57% # Class of executed instruction
system.cpu1.op_class::SimdReduceCmp                 0      0.00%     66.57% # Class of executed instruction
system.cpu1.op_class::SimdFloatReduceAdd            0      0.00%     66.57% # Class of executed instruction
system.cpu1.op_class::SimdFloatReduceCmp            0      0.00%     66.57% # Class of executed instruction
system.cpu1.op_class::SimdAes                       0      0.00%     66.57% # Class of executed instruction
system.cpu1.op_class::SimdAesMix                    0      0.00%     66.57% # Class of executed instruction
system.cpu1.op_class::SimdSha1Hash                  0      0.00%     66.57% # Class of executed instruction
system.cpu1.op_class::SimdSha1Hash2                 0      0.00%     66.57% # Class of executed instruction
system.cpu1.op_class::SimdSha256Hash                0      0.00%     66.57% # Class of executed instruction
system.cpu1.op_class::SimdSha256Hash2               0      0.00%     66.57% # Class of executed instruction
system.cpu1.op_class::SimdShaSigma2                 0      0.00%     66.57% # Class of executed instruction
system.cpu1.op_class::SimdShaSigma3                 0      0.00%     66.57% # Class of executed instruction
system.cpu1.op_class::SimdPredAlu                   0      0.00%     66.57% # Class of executed instruction
system.cpu1.op_class::MemRead                30813095     18.89%     85.47% # Class of executed instruction
system.cpu1.op_class::MemWrite               23705263     14.53%    100.00% # Class of executed instruction
system.cpu1.op_class::FloatMemRead                  0      0.00%    100.00% # Class of executed instruction
system.cpu1.op_class::FloatMemWrite                 0      0.00%    100.00% # Class of executed instruction
system.cpu1.op_class::IprAccess                     0      0.00%    100.00% # Class of executed instruction
system.cpu1.op_class::InstPrefetch                  0      0.00%    100.00% # Class of executed instruction
system.cpu1.op_class::total                 163095315                       # Class of executed instruction
system.cpu2.Branches                         21035488                       # Number of branches fetched
system.cpu2.committedInsts                   94349842                       # Number of instructions committed
system.cpu2.committedOps                    110925136                       # Number of ops (including micro ops) committed
system.cpu2.dtb.accesses                     36962383                       # DTB accesses
system.cpu2.dtb.align_faults                        0                       # Number of TLB faults due to alignment restrictions
system.cpu2.dtb.domain_faults                       0                       # Number of TLB faults due to domain restrictions
system.cpu2.dtb.flush_entries                    3326                       # Number of entries that have been flushed from TLB
system.cpu2.dtb.flush_tlb                          11                       # Number of times complete TLB was flushed
system.cpu2.dtb.flush_tlb_asid                    524                       # Number of times TLB was flushed by ASID
system.cpu2.dtb.flush_tlb_mva                    1467                       # Number of times TLB was flushed by MVA
system.cpu2.dtb.flush_tlb_mva_asid              61940                       # Number of times TLB was flushed by MVA & ASID
system.cpu2.dtb.hits                         36915084                       # DTB hits
system.cpu2.dtb.inst_accesses                       0                       # ITB inst accesses
system.cpu2.dtb.inst_hits                           0                       # ITB inst hits
system.cpu2.dtb.inst_misses                         0                       # ITB inst misses
system.cpu2.dtb.misses                          47299                       # DTB misses
system.cpu2.dtb.perms_faults                      911                       # Number of TLB faults due to permissions restrictions
system.cpu2.dtb.prefetch_faults                 10978                       # Number of TLB faults due to prefetch
system.cpu2.dtb.read_accesses                21277840                       # DTB read accesses
system.cpu2.dtb.read_hits                    21236333                       # DTB read hits
system.cpu2.dtb.read_misses                     41507                       # DTB read misses
system.cpu2.dtb.stage2_mmu.stage2_tlb.accesses            0                       # DTB accesses
system.cpu2.dtb.stage2_mmu.stage2_tlb.align_faults            0                       # Number of TLB faults due to alignment restrictions
system.cpu2.dtb.stage2_mmu.stage2_tlb.domain_faults            0                       # Number of TLB faults due to domain restrictions
system.cpu2.dtb.stage2_mmu.stage2_tlb.flush_entries            0                       # Number of entries that have been flushed from TLB
system.cpu2.dtb.stage2_mmu.stage2_tlb.flush_tlb            0                       # Number of times complete TLB was flushed
system.cpu2.dtb.stage2_mmu.stage2_tlb.flush_tlb_asid            0                       # Number of times TLB was flushed by ASID
system.cpu2.dtb.stage2_mmu.stage2_tlb.flush_tlb_mva            0                       # Number of times TLB was flushed by MVA
system.cpu2.dtb.stage2_mmu.stage2_tlb.flush_tlb_mva_asid            0                       # Number of times TLB was flushed by MVA & ASID
system.cpu2.dtb.stage2_mmu.stage2_tlb.hits            0                       # DTB hits
system.cpu2.dtb.stage2_mmu.stage2_tlb.inst_accesses            0                       # ITB inst accesses
system.cpu2.dtb.stage2_mmu.stage2_tlb.inst_hits            0                       # ITB inst hits
system.cpu2.dtb.stage2_mmu.stage2_tlb.inst_misses            0                       # ITB inst misses
system.cpu2.dtb.stage2_mmu.stage2_tlb.misses            0                       # DTB misses
system.cpu2.dtb.stage2_mmu.stage2_tlb.perms_faults            0                       # Number of TLB faults due to permissions restrictions
system.cpu2.dtb.stage2_mmu.stage2_tlb.prefetch_faults            0                       # Number of TLB faults due to prefetch
system.cpu2.dtb.stage2_mmu.stage2_tlb.read_accesses            0                       # DTB read accesses
system.cpu2.dtb.stage2_mmu.stage2_tlb.read_hits            0                       # DTB read hits
system.cpu2.dtb.stage2_mmu.stage2_tlb.read_misses            0                       # DTB read misses
system.cpu2.dtb.stage2_mmu.stage2_tlb.walker.walkRequestOrigin_Requested::Data            0                       # Table walker requests started/completed, data/inst
system.cpu2.dtb.stage2_mmu.stage2_tlb.walker.walkRequestOrigin_Requested::Inst            0                       # Table walker requests started/completed, data/inst
system.cpu2.dtb.stage2_mmu.stage2_tlb.walker.walkRequestOrigin_Requested::total            0                       # Table walker requests started/completed, data/inst
system.cpu2.dtb.stage2_mmu.stage2_tlb.walker.walkRequestOrigin_Completed::Data            0                       # Table walker requests started/completed, data/inst
system.cpu2.dtb.stage2_mmu.stage2_tlb.walker.walkRequestOrigin_Completed::Inst            0                       # Table walker requests started/completed, data/inst
system.cpu2.dtb.stage2_mmu.stage2_tlb.walker.walkRequestOrigin_Completed::total            0                       # Table walker requests started/completed, data/inst
system.cpu2.dtb.stage2_mmu.stage2_tlb.walker.walkRequestOrigin::total            0                       # Table walker requests started/completed, data/inst
system.cpu2.dtb.stage2_mmu.stage2_tlb.walker.walks            0                       # Table walker walks requested
system.cpu2.dtb.stage2_mmu.stage2_tlb.write_accesses            0                       # DTB write accesses
system.cpu2.dtb.stage2_mmu.stage2_tlb.write_hits            0                       # DTB write hits
system.cpu2.dtb.stage2_mmu.stage2_tlb.write_misses            0                       # DTB write misses
system.cpu2.dtb.walker.walkPageSizes::4K        44566     97.68%     97.68% # Table walker page sizes translated
system.cpu2.dtb.walker.walkPageSizes::2M          600      1.32%     99.00% # Table walker page sizes translated
system.cpu2.dtb.walker.walkPageSizes::1G          458      1.00%    100.00% # Table walker page sizes translated
system.cpu2.dtb.walker.walkPageSizes::total        45624                       # Table walker page sizes translated
system.cpu2.dtb.walker.walkRequestOrigin_Requested::Data        47299                       # Table walker requests started/completed, data/inst
system.cpu2.dtb.walker.walkRequestOrigin_Requested::Inst            0                       # Table walker requests started/completed, data/inst
system.cpu2.dtb.walker.walkRequestOrigin_Requested::total        47299                       # Table walker requests started/completed, data/inst
system.cpu2.dtb.walker.walkRequestOrigin_Completed::Data        45624                       # Table walker requests started/completed, data/inst
system.cpu2.dtb.walker.walkRequestOrigin_Completed::Inst            0                       # Table walker requests started/completed, data/inst
system.cpu2.dtb.walker.walkRequestOrigin_Completed::total        45624                       # Table walker requests started/completed, data/inst
system.cpu2.dtb.walker.walkRequestOrigin::total        92923                       # Table walker requests started/completed, data/inst
system.cpu2.dtb.walker.walkWaitTime::samples        47299                       # Table walker wait (enqueue to first request) latency
system.cpu2.dtb.walker.walkWaitTime::0          47299    100.00%    100.00% # Table walker wait (enqueue to first request) latency
system.cpu2.dtb.walker.walkWaitTime::total        47299                       # Table walker wait (enqueue to first request) latency
system.cpu2.dtb.walker.walks                    47299                       # Table walker walks requested
system.cpu2.dtb.walker.walksLong                47299                       # Table walker walks initiated with long descriptors
system.cpu2.dtb.walker.walksPending::samples   1000210308                       # Table walker pending requests distribution
system.cpu2.dtb.walker.walksPending::0     1000210308    100.00%    100.00% # Table walker pending requests distribution
system.cpu2.dtb.walker.walksPending::total   1000210308                       # Table walker pending requests distribution
system.cpu2.dtb.write_accesses               15684543                       # DTB write accesses
system.cpu2.dtb.write_hits                   15678751                       # DTB write hits
system.cpu2.dtb.write_misses                     5792                       # DTB write misses
system.cpu2.idle_fraction                    0.911479                       # Percentage of idle cycles
system.cpu2.itb.accesses                     94358741                       # DTB accesses
system.cpu2.itb.align_faults                        0                       # Number of TLB faults due to alignment restrictions
system.cpu2.itb.domain_faults                       0                       # Number of TLB faults due to domain restrictions
system.cpu2.itb.flush_entries                    2045                       # Number of entries that have been flushed from TLB
system.cpu2.itb.flush_tlb                          11                       # Number of times complete TLB was flushed
system.cpu2.itb.flush_tlb_asid                    524                       # Number of times TLB was flushed by ASID
system.cpu2.itb.flush_tlb_mva                    1467                       # Number of times TLB was flushed by MVA
system.cpu2.itb.flush_tlb_mva_asid              61940                       # Number of times TLB was flushed by MVA & ASID
system.cpu2.itb.hits                         94189573                       # DTB hits
system.cpu2.itb.inst_accesses                94358741                       # ITB inst accesses
system.cpu2.itb.inst_hits                    94189573                       # ITB inst hits
system.cpu2.itb.inst_misses                    169168                       # ITB inst misses
system.cpu2.itb.misses                         169168                       # DTB misses
system.cpu2.itb.perms_faults                        0                       # Number of TLB faults due to permissions restrictions
system.cpu2.itb.prefetch_faults                     0                       # Number of TLB faults due to prefetch
system.cpu2.itb.read_accesses                       0                       # DTB read accesses
system.cpu2.itb.read_hits                           0                       # DTB read hits
system.cpu2.itb.read_misses                         0                       # DTB read misses
system.cpu2.itb.stage2_mmu.stage2_tlb.accesses            0                       # DTB accesses
system.cpu2.itb.stage2_mmu.stage2_tlb.align_faults            0                       # Number of TLB faults due to alignment restrictions
system.cpu2.itb.stage2_mmu.stage2_tlb.domain_faults            0                       # Number of TLB faults due to domain restrictions
system.cpu2.itb.stage2_mmu.stage2_tlb.flush_entries            0                       # Number of entries that have been flushed from TLB
system.cpu2.itb.stage2_mmu.stage2_tlb.flush_tlb            0                       # Number of times complete TLB was flushed
system.cpu2.itb.stage2_mmu.stage2_tlb.flush_tlb_asid            0                       # Number of times TLB was flushed by ASID
system.cpu2.itb.stage2_mmu.stage2_tlb.flush_tlb_mva            0                       # Number of times TLB was flushed by MVA
system.cpu2.itb.stage2_mmu.stage2_tlb.flush_tlb_mva_asid            0                       # Number of times TLB was flushed by MVA & ASID
system.cpu2.itb.stage2_mmu.stage2_tlb.hits            0                       # DTB hits
system.cpu2.itb.stage2_mmu.stage2_tlb.inst_accesses            0                       # ITB inst accesses
system.cpu2.itb.stage2_mmu.stage2_tlb.inst_hits            0                       # ITB inst hits
system.cpu2.itb.stage2_mmu.stage2_tlb.inst_misses            0                       # ITB inst misses
system.cpu2.itb.stage2_mmu.stage2_tlb.misses            0                       # DTB misses
system.cpu2.itb.stage2_mmu.stage2_tlb.perms_faults            0                       # Number of TLB faults due to permissions restrictions
system.cpu2.itb.stage2_mmu.stage2_tlb.prefetch_faults            0                       # Number of TLB faults due to prefetch
system.cpu2.itb.stage2_mmu.stage2_tlb.read_accesses            0                       # DTB read accesses
system.cpu2.itb.stage2_mmu.stage2_tlb.read_hits            0                       # DTB read hits
system.cpu2.itb.stage2_mmu.stage2_tlb.read_misses            0                       # DTB read misses
system.cpu2.itb.stage2_mmu.stage2_tlb.walker.walkRequestOrigin_Requested::Data            0                       # Table walker requests started/completed, data/inst
system.cpu2.itb.stage2_mmu.stage2_tlb.walker.walkRequestOrigin_Requested::Inst            0                       # Table walker requests started/completed, data/inst
system.cpu2.itb.stage2_mmu.stage2_tlb.walker.walkRequestOrigin_Requested::total            0                       # Table walker requests started/completed, data/inst
system.cpu2.itb.stage2_mmu.stage2_tlb.walker.walkRequestOrigin_Completed::Data            0                       # Table walker requests started/completed, data/inst
system.cpu2.itb.stage2_mmu.stage2_tlb.walker.walkRequestOrigin_Completed::Inst            0                       # Table walker requests started/completed, data/inst
system.cpu2.itb.stage2_mmu.stage2_tlb.walker.walkRequestOrigin_Completed::total            0                       # Table walker requests started/completed, data/inst
system.cpu2.itb.stage2_mmu.stage2_tlb.walker.walkRequestOrigin::total            0                       # Table walker requests started/completed, data/inst
system.cpu2.itb.stage2_mmu.stage2_tlb.walker.walks            0                       # Table walker walks requested
system.cpu2.itb.stage2_mmu.stage2_tlb.write_accesses            0                       # DTB write accesses
system.cpu2.itb.stage2_mmu.stage2_tlb.write_hits            0                       # DTB write hits
system.cpu2.itb.stage2_mmu.stage2_tlb.write_misses            0                       # DTB write misses
system.cpu2.itb.walker.walkPageSizes::4K       167481     99.33%     99.33% # Table walker page sizes translated
system.cpu2.itb.walker.walkPageSizes::2M         1132      0.67%    100.00% # Table walker page sizes translated
system.cpu2.itb.walker.walkPageSizes::total       168613                       # Table walker page sizes translated
system.cpu2.itb.walker.walkRequestOrigin_Requested::Data            0                       # Table walker requests started/completed, data/inst
system.cpu2.itb.walker.walkRequestOrigin_Requested::Inst       169168                       # Table walker requests started/completed, data/inst
system.cpu2.itb.walker.walkRequestOrigin_Requested::total       169168                       # Table walker requests started/completed, data/inst
system.cpu2.itb.walker.walkRequestOrigin_Completed::Data            0                       # Table walker requests started/completed, data/inst
system.cpu2.itb.walker.walkRequestOrigin_Completed::Inst       168613                       # Table walker requests started/completed, data/inst
system.cpu2.itb.walker.walkRequestOrigin_Completed::total       168613                       # Table walker requests started/completed, data/inst
system.cpu2.itb.walker.walkRequestOrigin::total       337781                       # Table walker requests started/completed, data/inst
system.cpu2.itb.walker.walkWaitTime::samples       169168                       # Table walker wait (enqueue to first request) latency
system.cpu2.itb.walker.walkWaitTime::0         169168    100.00%    100.00% # Table walker wait (enqueue to first request) latency
system.cpu2.itb.walker.walkWaitTime::total       169168                       # Table walker wait (enqueue to first request) latency
system.cpu2.itb.walker.walks                   169168                       # Table walker walks requested
system.cpu2.itb.walker.walksLong               169168                       # Table walker walks initiated with long descriptors
system.cpu2.itb.walker.walksPending::samples   1000202408                       # Table walker pending requests distribution
system.cpu2.itb.walker.walksPending::0     1000202408    100.00%    100.00% # Table walker pending requests distribution
system.cpu2.itb.walker.walksPending::total   1000202408                       # Table walker pending requests distribution
system.cpu2.itb.write_accesses                      0                       # DTB write accesses
system.cpu2.itb.write_hits                          0                       # DTB write hits
system.cpu2.itb.write_misses                        0                       # DTB write misses
system.cpu2.kern.inst.arm                           0                       # number of arm instructions executed
system.cpu2.kern.inst.quiesce                    1716                       # number of quiesce instructions executed
system.cpu2.not_idle_fraction                0.088521                       # Percentage of non-idle cycles
system.cpu2.numCycles                      1252885682                       # number of cpu cycles simulated
system.cpu2.numWorkItemsCompleted                   0                       # number of work items this cpu completed
system.cpu2.numWorkItemsStarted                     0                       # number of work items this cpu started
system.cpu2.num_busy_cycles              110906409.491131                       # Number of busy cycles
system.cpu2.num_cc_register_reads            24612832                       # number of times the CC registers were read
system.cpu2.num_cc_register_writes           22802265                       # number of times the CC registers were written
system.cpu2.num_conditional_control_insts     14292103                       # number of instructions that are conditional controls
system.cpu2.num_fp_alu_accesses                     0                       # Number of float alu accesses
system.cpu2.num_fp_insts                            0                       # number of float instructions
system.cpu2.num_fp_register_reads                   0                       # number of times the floating registers were read
system.cpu2.num_fp_register_writes                  0                       # number of times the floating registers were written
system.cpu2.num_func_calls                    5697469                       # number of times a function call or return occured
system.cpu2.num_idle_cycles              1141979272.508869                       # Number of idle cycles
system.cpu2.num_int_alu_accesses            102553594                       # Number of integer alu accesses
system.cpu2.num_int_insts                   102553594                       # number of integer instructions
system.cpu2.num_int_register_reads          136721501                       # number of times the integer registers were read
system.cpu2.num_int_register_writes          81058341                       # number of times the integer registers were written
system.cpu2.num_load_insts                   21231558                       # Number of load instructions
system.cpu2.num_mem_refs                     36913556                       # number of memory refs
system.cpu2.num_store_insts                  15681998                       # Number of store instructions
system.cpu2.num_vec_alu_accesses               123111                       # Number of vector alu accesses
system.cpu2.num_vec_insts                      123111                       # number of vector instructions
system.cpu2.num_vec_register_reads             104874                       # number of times the vector registers were read
system.cpu2.num_vec_register_writes             20008                       # number of times the vector registers were written
system.cpu2.op_class::No_OpClass                30471      0.03%      0.03% # Class of executed instruction
system.cpu2.op_class::IntAlu                 73730937     66.46%     66.49% # Class of executed instruction
system.cpu2.op_class::IntMult                  218220      0.20%     66.69% # Class of executed instruction
system.cpu2.op_class::IntDiv                    31922      0.03%     66.72% # Class of executed instruction
system.cpu2.op_class::FloatAdd                      4      0.00%     66.72% # Class of executed instruction
system.cpu2.op_class::FloatCmp                     15      0.00%     66.72% # Class of executed instruction
system.cpu2.op_class::FloatCvt                      6      0.00%     66.72% # Class of executed instruction
system.cpu2.op_class::FloatMult                     0      0.00%     66.72% # Class of executed instruction
system.cpu2.op_class::FloatMultAcc                  0      0.00%     66.72% # Class of executed instruction
system.cpu2.op_class::FloatDiv                      0      0.00%     66.72% # Class of executed instruction
system.cpu2.op_class::FloatMisc                  8541      0.01%     66.72% # Class of executed instruction
system.cpu2.op_class::FloatSqrt                     0      0.00%     66.72% # Class of executed instruction
system.cpu2.op_class::SimdAdd                       0      0.00%     66.72% # Class of executed instruction
system.cpu2.op_class::SimdAddAcc                    0      0.00%     66.72% # Class of executed instruction
system.cpu2.op_class::SimdAlu                       0      0.00%     66.72% # Class of executed instruction
system.cpu2.op_class::SimdCmp                       0      0.00%     66.72% # Class of executed instruction
system.cpu2.op_class::SimdCvt                       0      0.00%     66.72% # Class of executed instruction
system.cpu2.op_class::SimdMisc                      0      0.00%     66.72% # Class of executed instruction
system.cpu2.op_class::SimdMult                      0      0.00%     66.72% # Class of executed instruction
system.cpu2.op_class::SimdMultAcc                   0      0.00%     66.72% # Class of executed instruction
system.cpu2.op_class::SimdShift                     0      0.00%     66.72% # Class of executed instruction
system.cpu2.op_class::SimdShiftAcc                  0      0.00%     66.72% # Class of executed instruction
system.cpu2.op_class::SimdDiv                       0      0.00%     66.72% # Class of executed instruction
system.cpu2.op_class::SimdSqrt                      0      0.00%     66.72% # Class of executed instruction
system.cpu2.op_class::SimdFloatAdd                  0      0.00%     66.72% # Class of executed instruction
system.cpu2.op_class::SimdFloatAlu                  0      0.00%     66.72% # Class of executed instruction
system.cpu2.op_class::SimdFloatCmp                  0      0.00%     66.72% # Class of executed instruction
system.cpu2.op_class::SimdFloatCvt                  0      0.00%     66.72% # Class of executed instruction
system.cpu2.op_class::SimdFloatDiv                  0      0.00%     66.72% # Class of executed instruction
system.cpu2.op_class::SimdFloatMisc                 0      0.00%     66.72% # Class of executed instruction
system.cpu2.op_class::SimdFloatMult                 0      0.00%     66.72% # Class of executed instruction
system.cpu2.op_class::SimdFloatMultAcc              0      0.00%     66.72% # Class of executed instruction
system.cpu2.op_class::SimdFloatSqrt                 0      0.00%     66.72% # Class of executed instruction
system.cpu2.op_class::SimdReduceAdd                 0      0.00%     66.72% # Class of executed instruction
system.cpu2.op_class::SimdReduceAlu                 0      0.00%     66.72% # Class of executed instruction
system.cpu2.op_class::SimdReduceCmp                 0      0.00%     66.72% # Class of executed instruction
system.cpu2.op_class::SimdFloatReduceAdd            0      0.00%     66.72% # Class of executed instruction
system.cpu2.op_class::SimdFloatReduceCmp            0      0.00%     66.72% # Class of executed instruction
system.cpu2.op_class::SimdAes                       0      0.00%     66.72% # Class of executed instruction
system.cpu2.op_class::SimdAesMix                    0      0.00%     66.72% # Class of executed instruction
system.cpu2.op_class::SimdSha1Hash                  0      0.00%     66.72% # Class of executed instruction
system.cpu2.op_class::SimdSha1Hash2                 0      0.00%     66.72% # Class of executed instruction
system.cpu2.op_class::SimdSha256Hash                0      0.00%     66.72% # Class of executed instruction
system.cpu2.op_class::SimdSha256Hash2               0      0.00%     66.72% # Class of executed instruction
system.cpu2.op_class::SimdShaSigma2                 0      0.00%     66.72% # Class of executed instruction
system.cpu2.op_class::SimdShaSigma3                 0      0.00%     66.72% # Class of executed instruction
system.cpu2.op_class::SimdPredAlu                   0      0.00%     66.72% # Class of executed instruction
system.cpu2.op_class::MemRead                21231558     19.14%     85.86% # Class of executed instruction
system.cpu2.op_class::MemWrite               15681998     14.14%    100.00% # Class of executed instruction
system.cpu2.op_class::FloatMemRead                  0      0.00%    100.00% # Class of executed instruction
system.cpu2.op_class::FloatMemWrite                 0      0.00%    100.00% # Class of executed instruction
system.cpu2.op_class::IprAccess                     0      0.00%    100.00% # Class of executed instruction
system.cpu2.op_class::InstPrefetch                  0      0.00%    100.00% # Class of executed instruction
system.cpu2.op_class::total                 110933672                       # Class of executed instruction
system.cpu3.Branches                         19757725                       # Number of branches fetched
system.cpu3.committedInsts                   89263606                       # Number of instructions committed
system.cpu3.committedOps                    105307933                       # Number of ops (including micro ops) committed
system.cpu3.dtb.accesses                     35226029                       # DTB accesses
[...]
system.mem_ctrls.rdQLenPdf::21                      0                       # What read queue length does an incoming req see
system.mem_ctrls.rdQLenPdf::22                      0                       # What read queue length does an incoming req see
system.mem_ctrls.rdQLenPdf::23                      0                       # What read queue length does an incoming req see
system.mem_ctrls.rdQLenPdf::24                      0                       # What read queue length does an incoming req see
system.mem_ctrls.rdQLenPdf::25                      0                       # What read queue length does an incoming req see
system.mem_ctrls.rdQLenPdf::26                      0                       # What read queue length does an incoming req see
system.mem_ctrls.rdQLenPdf::27                      0                       # What read queue length does an incoming req see
system.mem_ctrls.rdQLenPdf::28                      0                       # What read queue length does an incoming req see
system.mem_ctrls.rdQLenPdf::29                      0                       # What read queue length does an incoming req see
system.mem_ctrls.rdQLenPdf::30                      0                       # What read queue length does an incoming req see
system.mem_ctrls.rdQLenPdf::31                      0                       # What read queue length does an incoming req see
system.mem_ctrls.wrQLenPdf::0                       0                       # What write queue length does an incoming req see
system.mem_ctrls.wrQLenPdf::1                       0                       # What write queue length does an incoming req see
system.mem_ctrls.wrQLenPdf::2                       0                       # What write queue length does an incoming req see
system.mem_ctrls.wrQLenPdf::3                       0                       # What write queue length does an incoming req see
system.mem_ctrls.wrQLenPdf::4                       0                       # What write queue length does an incoming req see
system.mem_ctrls.wrQLenPdf::5                       0                       # What write queue length does an incoming req see
system.mem_ctrls.wrQLenPdf::6                       0                       # What write queue length does an incoming req see
system.mem_ctrls.wrQLenPdf::7                       0                       # What write queue length does an incoming req see
system.mem_ctrls.wrQLenPdf::8                       0                       # What write queue length does an incoming req see
system.mem_ctrls.wrQLenPdf::9                       0                       # What write queue length does an incoming req see
system.mem_ctrls.wrQLenPdf::10                      0                       # What write queue length does an incoming req see
system.mem_ctrls.wrQLenPdf::11                      0                       # What write queue length does an incoming req see
system.mem_ctrls.wrQLenPdf::12                      0                       # What write queue length does an incoming req see
system.mem_ctrls.wrQLenPdf::13                      0                       # What write queue length does an incoming req see
system.mem_ctrls.wrQLenPdf::14                      0                       # What write queue length does an incoming req see
system.mem_ctrls.wrQLenPdf::15                      0                       # What write queue length does an incoming req see
system.mem_ctrls.wrQLenPdf::16                      0                       # What write queue length does an incoming req see
system.mem_ctrls.wrQLenPdf::17                      0                       # What write queue length does an incoming req see
system.mem_ctrls.wrQLenPdf::18                      0                       # What write queue length does an incoming req see
system.mem_ctrls.wrQLenPdf::19                      0                       # What write queue length does an incoming req see
system.mem_ctrls.wrQLenPdf::20                      0                       # What write queue length does an incoming req see
system.mem_ctrls.wrQLenPdf::21                      0                       # What write queue length does an incoming req see
system.mem_ctrls.wrQLenPdf::22                      0                       # What write queue length does an incoming req see
system.mem_ctrls.wrQLenPdf::23                      0                       # What write queue length does an incoming req see
system.mem_ctrls.wrQLenPdf::24                      0                       # What write queue length does an incoming req see
system.mem_ctrls.wrQLenPdf::25                      0                       # What write queue length does an incoming req see
system.mem_ctrls.wrQLenPdf::26                      0                       # What write queue length does an incoming req see
system.mem_ctrls.wrQLenPdf::27                      0                       # What write queue length does an incoming req see
system.mem_ctrls.wrQLenPdf::28                      0                       # What write queue length does an incoming req see
system.mem_ctrls.wrQLenPdf::29                      0                       # What write queue length does an incoming req see
system.mem_ctrls.wrQLenPdf::30                      0                       # What write queue length does an incoming req see
system.mem_ctrls.wrQLenPdf::31                      0                       # What write queue length does an incoming req see
system.mem_ctrls.wrQLenPdf::32                      0                       # What write queue length does an incoming req see
system.mem_ctrls.wrQLenPdf::33                      0                       # What write queue length does an incoming req see
system.mem_ctrls.wrQLenPdf::34                      0                       # What write queue length does an incoming req see
system.mem_ctrls.wrQLenPdf::35                      0                       # What write queue length does an incoming req see
system.mem_ctrls.wrQLenPdf::36                      0                       # What write queue length does an incoming req see
system.mem_ctrls.wrQLenPdf::37                      0                       # What write queue length does an incoming req see
system.mem_ctrls.wrQLenPdf::38                      0                       # What write queue length does an incoming req see
system.mem_ctrls.wrQLenPdf::39                      0                       # What write queue length does an incoming req see
system.mem_ctrls.wrQLenPdf::40                      0                       # What write queue length does an incoming req see
system.mem_ctrls.wrQLenPdf::41                      0                       # What write queue length does an incoming req see
system.mem_ctrls.wrQLenPdf::42                      0                       # What write queue length does an incoming req see
system.mem_ctrls.wrQLenPdf::43                      0                       # What write queue length does an incoming req see
system.mem_ctrls.wrQLenPdf::44                      0                       # What write queue length does an incoming req see
system.mem_ctrls.wrQLenPdf::45                      0                       # What write queue length does an incoming req see
system.mem_ctrls.wrQLenPdf::46                      0                       # What write queue length does an incoming req see
system.mem_ctrls.wrQLenPdf::47                      0                       # What write queue length does an incoming req see
system.mem_ctrls.wrQLenPdf::48                      0                       # What write queue length does an incoming req see
system.mem_ctrls.wrQLenPdf::49                      0                       # What write queue length does an incoming req see
system.mem_ctrls.wrQLenPdf::50                      0                       # What write queue length does an incoming req see
system.mem_ctrls.wrQLenPdf::51                      0                       # What write queue length does an incoming req see
system.mem_ctrls.wrQLenPdf::52                      0                       # What write queue length does an incoming req see
system.mem_ctrls.wrQLenPdf::53                      0                       # What write queue length does an incoming req see
system.mem_ctrls.wrQLenPdf::54                      0                       # What write queue length does an incoming req see
system.mem_ctrls.wrQLenPdf::55                      0                       # What write queue length does an incoming req see
system.mem_ctrls.wrQLenPdf::56                      0                       # What write queue length does an incoming req see
system.mem_ctrls.wrQLenPdf::57                      0                       # What write queue length does an incoming req see
system.mem_ctrls.wrQLenPdf::58                      0                       # What write queue length does an incoming req see
system.mem_ctrls.wrQLenPdf::59                      0                       # What write queue length does an incoming req see
system.mem_ctrls.wrQLenPdf::60                      0                       # What write queue length does an incoming req see
system.mem_ctrls.wrQLenPdf::61                      0                       # What write queue length does an incoming req see
system.mem_ctrls.wrQLenPdf::62                      0                       # What write queue length does an incoming req see
system.mem_ctrls.wrQLenPdf::63                      0                       # What write queue length does an incoming req see
system.mem_ctrls.bytesReadDRAM                      0                       # Total number of bytes read from DRAM
system.mem_ctrls.bytesReadWrQ                       0                       # Total number of bytes read from write queue
system.mem_ctrls.bytesWritten                       0                       # Total number of bytes written to DRAM
system.mem_ctrls.bytesReadSys                       0                       # Total read bytes from the system interface side
system.mem_ctrls.bytesWrittenSys                    0                       # Total written bytes from the system interface side
system.mem_ctrls.avgRdBW                         0.00                       # Average DRAM read bandwidth in MiByte/s
system.mem_ctrls.avgWrBW                         0.00                       # Average achieved write bandwidth in MiByte/s
system.mem_ctrls.avgRdBWSys                      0.00                       # Average system read bandwidth in MiByte/s
system.mem_ctrls.avgWrBWSys                      0.00                       # Average system write bandwidth in MiByte/s
system.mem_ctrls.peakBW                      12800.00                       # Theoretical peak bandwidth in MiByte/s
system.mem_ctrls.busUtil                         0.00                       # Data bus utilization in percentage
system.mem_ctrls.busUtilRead                     0.00                       # Data bus utilization in percentage for reads
system.mem_ctrls.busUtilWrite                    0.00                       # Data bus utilization in percentage for writes
system.mem_ctrls.totGap                             0                       # Total gap between requests
system.mem_ctrls.avgGap                           nan                       # Average gap between requests
system.mem_ctrls.pageHitRate                      nan                       # Row buffer hit rate, read and write combined
system.mem_ctrls.rank1.actEnergy                    0                       # Energy for activate commands per rank (pJ)
system.mem_ctrls.rank1.preEnergy                    0                       # Energy for precharge commands per rank (pJ)
system.mem_ctrls.rank1.readEnergy                   0                       # Energy for read commands per rank (pJ)
system.mem_ctrls.rank1.writeEnergy                  0                       # Energy for write commands per rank (pJ)
system.mem_ctrls.rank1.refreshEnergy                0                       # Energy for refresh commands per rank (pJ)
system.mem_ctrls.rank1.actBackEnergy                0                       # Energy for active background per rank (pJ)
system.mem_ctrls.rank1.preBackEnergy     760337021760                       # Energy for precharge background per rank (pJ)
system.mem_ctrls.rank1.actPowerDownEnergy            0                       # Energy for active power-down per rank (pJ)
system.mem_ctrls.rank1.prePowerDownEnergy            0                       # Energy for precharge power-down per rank (pJ)
system.mem_ctrls.rank1.selfRefreshEnergy            0                       # Energy for self refresh per rank (pJ)
system.mem_ctrls.rank1.totalEnergy       760337021760                       # Total energy per rank (pJ)
system.mem_ctrls.rank1.averagePower        384.000000                       # Core power per rank (mW)
system.mem_ctrls.rank1.totalIdleTime                0                       # Total Idle time Per DRAM Rank
system.mem_ctrls.rank1.memoryStateTime::IDLE 1980044326960                       # Time in different power states
system.mem_ctrls.rank1.memoryStateTime::REF            0                       # Time in different power states
system.mem_ctrls.rank1.memoryStateTime::SREF            0                       # Time in different power states
system.mem_ctrls.rank1.memoryStateTime::PRE_PDN            0                       # Time in different power states
system.mem_ctrls.rank1.memoryStateTime::ACT            0                       # Time in different power states
system.mem_ctrls.rank1.memoryStateTime::ACT_PDN            0                       # Time in different power states
system.mem_ctrls.rank0.actEnergy                    0                       # Energy for activate commands per rank (pJ)
system.mem_ctrls.rank0.preEnergy                    0                       # Energy for precharge commands per rank (pJ)
system.mem_ctrls.rank0.readEnergy                   0                       # Energy for read commands per rank (pJ)
system.mem_ctrls.rank0.writeEnergy                  0                       # Energy for write commands per rank (pJ)
system.mem_ctrls.rank0.refreshEnergy                0                       # Energy for refresh commands per rank (pJ)
system.mem_ctrls.rank0.actBackEnergy                0                       # Energy for active background per rank (pJ)
system.mem_ctrls.rank0.preBackEnergy     760337021760                       # Energy for precharge background per rank (pJ)
system.mem_ctrls.rank0.actPowerDownEnergy            0                       # Energy for active power-down per rank (pJ)
system.mem_ctrls.rank0.prePowerDownEnergy            0                       # Energy for precharge power-down per rank (pJ)
system.mem_ctrls.rank0.selfRefreshEnergy            0                       # Energy for self refresh per rank (pJ)
system.mem_ctrls.rank0.totalEnergy       760337021760                       # Total energy per rank (pJ)
system.mem_ctrls.rank0.averagePower        384.000000                       # Core power per rank (mW)
system.mem_ctrls.rank0.totalIdleTime                0                       # Total Idle time Per DRAM Rank
system.mem_ctrls.rank0.memoryStateTime::IDLE 1980044326960                       # Time in different power states
system.mem_ctrls.rank0.memoryStateTime::REF            0                       # Time in different power states
system.mem_ctrls.rank0.memoryStateTime::SREF            0                       # Time in different power states
system.mem_ctrls.rank0.memoryStateTime::PRE_PDN            0                       # Time in different power states
system.mem_ctrls.rank0.memoryStateTime::ACT            0                       # Time in different power states
system.mem_ctrls.rank0.memoryStateTime::ACT_PDN            0                       # Time in different power states
system.iobus.pwrStateResidencyTicks::UNDEFINED 1980044326960                       # Cumulative time (in ticks) in various power states
system.iobus.trans_dist::ReadReq                39309                       # Transaction distribution
system.iobus.trans_dist::ReadResp               39309                       # Transaction distribution
system.iobus.trans_dist::WriteReq              293953                       # Transaction distribution
system.iobus.trans_dist::WriteResp             293953                       # Transaction distribution
system.iobus.pkt_count_system.bridge.master::system.realview.realview_io.pio          146                       # Packet count per connected master and slave (bytes)
system.iobus.pkt_count_system.bridge.master::system.realview.uart.pio        61620                       # Packet count per connected master and slave (bytes)
system.iobus.pkt_count_system.bridge.master::system.realview.pci_host.pio          302                       # Packet count per connected master and slave (bytes)
system.iobus.pkt_count_system.bridge.master::system.realview.energy_ctrl.pio            2                       # Packet count per connected master and slave (bytes)
system.iobus.pkt_count_system.bridge.master::system.realview.vio0.pio            6                       # Packet count per connected master and slave (bytes)
system.iobus.pkt_count_system.bridge.master::system.realview.vio1.pio            6                       # Packet count per connected master and slave (bytes)
system.iobus.pkt_count_system.bridge.master::system.pci_ide.pio        82404                       # Packet count per connected master and slave (bytes)
system.iobus.pkt_count_system.bridge.master::total       144486                       # Packet count per connected master and slave (bytes)
system.iobus.pkt_count_system.pci_ide.dma::system.iocache.cpu_side       522038                       # Packet count per connected master and slave (bytes)
system.iobus.pkt_count_system.pci_ide.dma::total       522038                       # Packet count per connected master and slave (bytes)
system.iobus.pkt_count::total                  666524                       # Packet count per connected master and slave (bytes)
system.iobus.pkt_size_system.bridge.master::system.realview.realview_io.pio          292                       # Cumulative packet size per connected master and slave (bytes)
system.iobus.pkt_size_system.bridge.master::system.realview.uart.pio        61640                       # Cumulative packet size per connected master and slave (bytes)
system.iobus.pkt_size_system.bridge.master::system.realview.pci_host.pio          411                       # Cumulative packet size per connected master and slave (bytes)
system.iobus.pkt_size_system.bridge.master::system.realview.energy_ctrl.pio            4                       # Cumulative packet size per connected master and slave (bytes)
system.iobus.pkt_size_system.bridge.master::system.realview.vio0.pio           12                       # Cumulative packet size per connected master and slave (bytes)
system.iobus.pkt_size_system.bridge.master::system.realview.vio1.pio           12                       # Cumulative packet size per connected master and slave (bytes)
system.iobus.pkt_size_system.bridge.master::system.pci_ide.pio        48129                       # Cumulative packet size per connected master and slave (bytes)
system.iobus.pkt_size_system.bridge.master::total       110500                       # Cumulative packet size per connected master and slave (bytes)
system.iobus.pkt_size_system.pci_ide.dma::system.iocache.cpu_side     16555864                       # Cumulative packet size per connected master and slave (bytes)
system.iobus.pkt_size_system.pci_ide.dma::total     16555864                       # Cumulative packet size per connected master and slave (bytes)
system.iobus.pkt_size::total                 16666364                       # Cumulative packet size per connected master and slave (bytes)

---------- End Simulation Statistics   ----------
