
---------- Begin Simulation Statistics ----------
final_tick                               7081329849960                       # Number of ticks from beginning of simulation (restored from checkpoints and never reset)
host_inst_rate                                 530479                       # Simulator instruction rate (inst/s)
host_mem_usage                               20300676                       # Number of bytes of host memory used
host_op_rate                                   620559                       # Simulator op (including micro ops) rate (op/s)
host_seconds                                  3476.31                       # Real time elapsed on the host
host_tick_rate                             2037026855                       # Simulator tick rate (ticks/s)
sim_freq                                 1000000000000                       # Frequency of simulated ticks
sim_insts                                  1844108382                       # Number of instructions simulated
sim_ops                                    2157252453                       # Number of ops (including micro ops) simulated
sim_seconds                                  7.081330                       # Number of seconds simulated
sim_ticks                                7081329849960                       # Number of ticks simulated
system.cpu00.Branches                       115575758                       # Number of branches fetched
system.cpu00.committedInsts                 495350527                       # Number of instructions committed
system.cpu00.committedOps                   566986369                       # Number of ops (including micro ops) committed
system.cpu00.dtb.accesses                   174729111                       # DTB accesses
system.cpu00.dtb.align_faults                       0                       # Number of TLB faults due to alignment restrictions
system.cpu00.dtb.domain_faults                      0                       # Number of TLB faults due to domain restrictions
system.cpu00.dtb.flush_entries                   1161                       # Number of entries that have been flushed from TLB
system.cpu00.dtb.flush_tlb                         13                       # Number of times complete TLB was flushed
system.cpu00.dtb.flush_tlb_asid                   490                       # Number of times TLB was flushed by ASID
system.cpu00.dtb.flush_tlb_mva                   1467                       # Number of times TLB was flushed by MVA
system.cpu00.dtb.flush_tlb_mva_asid             58070                       # Number of times TLB was flushed by MVA & ASID
system.cpu00.dtb.hits                       174701198                       # DTB hits
system.cpu00.dtb.inst_accesses                      0                       # ITB inst accesses
system.cpu00.dtb.inst_hits                          0                       # ITB inst hits
system.cpu00.dtb.inst_misses                        0                       # ITB inst misses
system.cpu00.dtb.misses                         27913                       # DTB misses
system.cpu00.dtb.perms_faults                      84                       # Number of TLB faults due to permissions restrictions
system.cpu00.dtb.prefetch_faults                 4292                       # Number of TLB faults due to prefetch
system.cpu00.dtb.read_accesses               82842195                       # DTB read accesses
system.cpu00.dtb.read_hits                   82817827                       # DTB read hits
system.cpu00.dtb.read_misses                    24368                       # DTB read misses
system.cpu00.dtb.stage2_mmu.stage2_tlb.accesses            0                       # DTB accesses
system.cpu00.dtb.stage2_mmu.stage2_tlb.align_faults            0                       # Number of TLB faults due to alignment restrictions
system.cpu00.dtb.stage2_mmu.stage2_tlb.domain_faults            0                       # Number of TLB faults due to domain restrictions
system.cpu00.dtb.stage2_mmu.stage2_tlb.flush_entries            0                       # Number of entries that have been flushed from TLB
system.cpu00.dtb.stage2_mmu.stage2_tlb.flush_tlb            0                       # Number of times complete TLB was flushed
system.cpu00.dtb.stage2_mmu.stage2_tlb.flush_tlb_asid            0                       # Number of times TLB was flushed by ASID
system.cpu00.dtb.stage2_mmu.stage2_tlb.flush_tlb_mva            0                       # Number of times TLB was flushed by MVA
system.cpu00.dtb.stage2_mmu.stage2_tlb.flush_tlb_mva_asid            0                       # Number of times TLB was flushed by MVA & ASID
system.cpu00.dtb.stage2_mmu.stage2_tlb.hits            0                       # DTB hits
system.cpu00.dtb.stage2_mmu.stage2_tlb.inst_accesses            0                       # ITB inst accesses
system.cpu00.dtb.stage2_mmu.stage2_tlb.inst_hits            0                       # ITB inst hits
system.cpu00.dtb.stage2_mmu.stage2_tlb.inst_misses            0                       # ITB inst misses
system.cpu00.dtb.stage2_mmu.stage2_tlb.misses            0                       # DTB misses
system.cpu00.dtb.stage2_mmu.stage2_tlb.perms_faults            0                       # Number of TLB faults due to permissions restrictions
system.cpu00.dtb.stage2_mmu.stage2_tlb.prefetch_faults            0                       # Number of TLB faults due to prefetch
system.cpu00.dtb.stage2_mmu.stage2_tlb.read_accesses            0                       # DTB read accesses
system.cpu00.dtb.stage2_mmu.stage2_tlb.read_hits            0                       # DTB read hits
system.cpu00.dtb.stage2_mmu.stage2_tlb.read_misses            0                       # DTB read misses
system.cpu00.dtb.stage2_mmu.stage2_tlb.walker.walkRequestOrigin_Requested::Data            0                       # Table walker requests started/completed, data/inst
system.cpu00.dtb.stage2_mmu.stage2_tlb.walker.walkRequestOrigin_Requested::Inst            0                       # Table walker requests started/completed, data/inst
system.cpu00.dtb.stage2_mmu.stage2_tlb.walker.walkRequestOrigin_Requested::total            0                       # Table walker requests started/completed, data/inst
system.cpu00.dtb.stage2_mmu.stage2_tlb.walker.walkRequestOrigin_Completed::Data            0                       # Table walker requests started/completed, data/inst
system.cpu00.dtb.stage2_mmu.stage2_tlb.walker.walkRequestOrigin_Completed::Inst            0                       # Table walker requests started/completed, data/inst
system.cpu00.dtb.stage2_mmu.stage2_tlb.walker.walkRequestOrigin_Completed::total            0                       # Table walker requests started/completed, data/inst
system.cpu00.dtb.stage2_mmu.stage2_tlb.walker.walkRequestOrigin::total            0                       # Table walker requests started/completed, data/inst
system.cpu00.dtb.stage2_mmu.stage2_tlb.walker.walks            0                       # Table walker walks requested
system.cpu00.dtb.stage2_mmu.stage2_tlb.write_accesses            0                       # DTB write accesses
system.cpu00.dtb.stage2_mmu.stage2_tlb.write_hits            0                       # DTB write hits
system.cpu00.dtb.stage2_mmu.stage2_tlb.write_misses            0                       # DTB write misses
system.cpu00.dtb.walker.walkPageSizes::4K        27080     97.47%     97.47% # Table walker page sizes translated
system.cpu00.dtb.walker.walkPageSizes::2M          612      2.20%     99.67% # Table walker page sizes translated
system.cpu00.dtb.walker.walkPageSizes::1G           91      0.33%    100.00% # Table walker page sizes translated
system.cpu00.dtb.walker.walkPageSizes::total        27783                       # Table walker page sizes translated
system.cpu00.dtb.walker.walkRequestOrigin_Requested::Data        27913                       # Table walker requests started/completed, data/inst
system.cpu00.dtb.walker.walkRequestOrigin_Requested::Inst            0                       # Table walker requests started/completed, data/inst
system.cpu00.dtb.walker.walkRequestOrigin_Requested::total        27913                       # Table walker requests started/completed, data/inst
system.cpu00.dtb.walker.walkRequestOrigin_Completed::Data        27783                       # Table walker requests started/completed, data/inst
system.cpu00.dtb.walker.walkRequestOrigin_Completed::Inst            0                       # Table walker requests started/completed, data/inst
system.cpu00.dtb.walker.walkRequestOrigin_Completed::total        27783                       # Table walker requests started/completed, data/inst
system.cpu00.dtb.walker.walkRequestOrigin::total        55696                       # Table walker requests started/completed, data/inst
system.cpu00.dtb.walker.walkWaitTime::samples        27913                       # Table walker wait (enqueue to first request) latency
system.cpu00.dtb.walker.walkWaitTime::0         27913    100.00%    100.00% # Table walker wait (enqueue to first request) latency
system.cpu00.dtb.walker.walkWaitTime::total        27913                       # Table walker wait (enqueue to first request) latency
system.cpu00.dtb.walker.walks                   27913                       # Table walker walks requested
system.cpu00.dtb.walker.walksLong               27913                       # Table walker walks initiated with long descriptors
system.cpu00.dtb.walker.walksPending::samples     48759456                       # Table walker pending requests distribution
system.cpu00.dtb.walker.walksPending::0      48759456    100.00%    100.00% # Table walker pending requests distribution
system.cpu00.dtb.walker.walksPending::total     48759456                       # Table walker pending requests distribution
system.cpu00.dtb.write_accesses              91886916                       # DTB write accesses
system.cpu00.dtb.write_hits                  91883371                       # DTB write hits
system.cpu00.dtb.write_misses                    3545                       # DTB write misses
system.cpu00.idle_fraction                   0.555144                       # Percentage of idle cycles
system.cpu00.itb.accesses                   495258644                       # DTB accesses
system.cpu00.itb.align_faults                       0                       # Number of TLB faults due to alignment restrictions
system.cpu00.itb.domain_faults                      0                       # Number of TLB faults due to domain restrictions
system.cpu00.itb.flush_entries                    350                       # Number of entries that have been flushed from TLB
system.cpu00.itb.flush_tlb                         13                       # Number of times complete TLB was flushed
system.cpu00.itb.flush_tlb_asid                   490                       # Number of times TLB was flushed by ASID
system.cpu00.itb.flush_tlb_mva                   1467                       # Number of times TLB was flushed by MVA
system.cpu00.itb.flush_tlb_mva_asid             58070                       # Number of times TLB was flushed by MVA & ASID
system.cpu00.itb.hits                       495137933                       # DTB hits
system.cpu00.itb.inst_accesses              495258644                       # ITB inst accesses
system.cpu00.itb.inst_hits                  495137933                       # ITB inst hits
system.cpu00.itb.inst_misses                   120711                       # ITB inst misses
system.cpu00.itb.misses                        120711                       # DTB misses
system.cpu00.itb.perms_faults                       0                       # Number of TLB faults due to permissions restrictions
system.cpu00.itb.prefetch_faults                    0                       # Number of TLB faults due to prefetch
system.cpu00.itb.read_accesses                      0                       # DTB read accesses
system.cpu00.itb.read_hits                          0                       # DTB read hits
system.cpu00.itb.read_misses                        0                       # DTB read misses
system.cpu00.itb.stage2_mmu.stage2_tlb.accesses            0                       # DTB accesses
system.cpu00.itb.stage2_mmu.stage2_tlb.align_faults            0                       # Number of TLB faults due to alignment restrictions
system.cpu00.itb.stage2_mmu.stage2_tlb.domain_faults            0                       # Number of TLB faults due to domain restrictions
system.cpu00.itb.stage2_mmu.stage2_tlb.flush_entries            0                       # Number of entries that have been flushed from TLB
system.cpu00.itb.stage2_mmu.stage2_tlb.flush_tlb            0                       # Number of times complete TLB was flushed
system.cpu00.itb.stage2_mmu.stage2_tlb.flush_tlb_asid            0                       # Number of times TLB was flushed by ASID
system.cpu00.itb.stage2_mmu.stage2_tlb.flush_tlb_mva            0                       # Number of times TLB was flushed by MVA
system.cpu00.itb.stage2_mmu.stage2_tlb.flush_tlb_mva_asid            0                       # Number of times TLB was flushed by MVA & ASID
system.cpu00.itb.stage2_mmu.stage2_tlb.hits            0                       # DTB hits
system.cpu00.itb.stage2_mmu.stage2_tlb.inst_accesses            0                       # ITB inst accesses
system.cpu00.itb.stage2_mmu.stage2_tlb.inst_hits            0                       # ITB inst hits
system.cpu00.itb.stage2_mmu.stage2_tlb.inst_misses            0                       # ITB inst misses
system.cpu00.itb.stage2_mmu.stage2_tlb.misses            0                       # DTB misses
system.cpu00.itb.stage2_mmu.stage2_tlb.perms_faults            0                       # Number of TLB faults due to permissions restrictions
system.cpu00.itb.stage2_mmu.stage2_tlb.prefetch_faults            0                       # Number of TLB faults due to prefetch
system.cpu00.itb.stage2_mmu.stage2_tlb.read_accesses            0                       # DTB read accesses
system.cpu00.itb.stage2_mmu.stage2_tlb.read_hits            0                       # DTB read hits
system.cpu00.itb.stage2_mmu.stage2_tlb.read_misses            0                       # DTB read misses
system.cpu00.itb.stage2_mmu.stage2_tlb.walker.walkRequestOrigin_Requested::Data            0                       # Table walker requests started/completed, data/inst
system.cpu00.itb.stage2_mmu.stage2_tlb.walker.walkRequestOrigin_Requested::Inst            0                       # Table walker requests started/completed, data/inst
system.cpu00.itb.stage2_mmu.stage2_tlb.walker.walkRequestOrigin_Requested::total            0                       # Table walker requests started/completed, data/inst
system.cpu00.itb.stage2_mmu.stage2_tlb.walker.walkRequestOrigin_Completed::Data            0                       # Table walker requests started/completed, data/inst
system.cpu00.itb.stage2_mmu.stage2_tlb.walker.walkRequestOrigin_Completed::Inst            0                       # Table walker requests started/completed, data/inst
system.cpu00.itb.stage2_mmu.stage2_tlb.walker.walkRequestOrigin_Completed::total            0                       # Table walker requests started/completed, data/inst
system.cpu00.itb.stage2_mmu.stage2_tlb.walker.walkRequestOrigin::total            0                       # Table walker requests started/completed, data/inst
system.cpu00.itb.stage2_mmu.stage2_tlb.walker.walks            0                       # Table walker walks requested
system.cpu00.itb.stage2_mmu.stage2_tlb.write_accesses            0                       # DTB write accesses
system.cpu00.itb.stage2_mmu.stage2_tlb.write_hits            0                       # DTB write hits
system.cpu00.itb.stage2_mmu.stage2_tlb.write_misses            0                       # DTB write misses
system.cpu00.itb.walker.walkPageSizes::4K       119695     99.17%     99.17% # Table walker page sizes translated
system.cpu00.itb.walker.walkPageSizes::2M          999      0.83%    100.00% # Table walker page sizes translated
system.cpu00.itb.walker.walkPageSizes::total       120694                       # Table walker page sizes translated
system.cpu00.itb.walker.walkRequestOrigin_Requested::Data            0                       # Table walker requests started/completed, data/inst
system.cpu00.itb.walker.walkRequestOrigin_Requested::Inst       120711                       # Table walker requests started/completed, data/inst
system.cpu00.itb.walker.walkRequestOrigin_Requested::total       120711                       # Table walker requests started/completed, data/inst
system.cpu00.itb.walker.walkRequestOrigin_Completed::Data            0                       # Table walker requests started/completed, data/inst
system.cpu00.itb.walker.walkRequestOrigin_Completed::Inst       120694                       # Table walker requests started/completed, data/inst
system.cpu00.itb.walker.walkRequestOrigin_Completed::total       120694                       # Table walker requests started/completed, data/inst
system.cpu00.itb.walker.walkRequestOrigin::total       241405                       # Table walker requests started/completed, data/inst
system.cpu00.itb.walker.walkWaitTime::samples       120711                       # Table walker wait (enqueue to first request) latency
system.cpu00.itb.walker.walkWaitTime::0        120711    100.00%    100.00% # Table walker wait (enqueue to first request) latency
system.cpu00.itb.walker.walkWaitTime::total       120711                       # Table walker wait (enqueue to first request) latency
system.cpu00.itb.walker.walks                  120711                       # Table walker walks requested
system.cpu00.itb.walker.walksLong              120711                       # Table walker walks initiated with long descriptors
system.cpu00.itb.walker.walksPending::samples     48731676                       # Table walker pending requests distribution
system.cpu00.itb.walker.walksPending::0      48731676    100.00%    100.00% # Table walker pending requests distribution
system.cpu00.itb.walker.walksPending::total     48731676                       # Table walker pending requests distribution
system.cpu00.itb.write_accesses                     0                       # DTB write accesses
system.cpu00.itb.write_hits                         0                       # DTB write hits
system.cpu00.itb.write_misses                       0                       # DTB write misses
system.cpu00.kern.inst.arm                          0                       # number of arm instructions executed
system.cpu00.kern.inst.quiesce                   3149                       # number of quiesce instructions executed
system.cpu00.not_idle_fraction               0.444856                       # Percentage of non-idle cycles
system.cpu00.numCycles                     1265305599                       # number of cpu cycles simulated
system.cpu00.numWorkItemsCompleted                  0                       # number of work items this cpu completed
system.cpu00.numWorkItemsStarted                    0                       # number of work items this cpu started
system.cpu00.num_busy_cycles             562878585.604718                       # Number of busy cycles
system.cpu00.num_cc_register_reads          141313296                       # number of times the CC registers were read
system.cpu00.num_cc_register_writes         140479197                       # number of times the CC registers were written
system.cpu00.num_conditional_control_insts     70245548                       # number of instructions that are conditional controls
system.cpu00.num_fp_alu_accesses                    0                       # Number of float alu accesses
system.cpu00.num_fp_insts                           0                       # number of float instructions
system.cpu00.num_fp_register_reads                  0                       # number of times the floating registers were read
system.cpu00.num_fp_register_writes                 0                       # number of times the floating registers were written
system.cpu00.num_func_calls                  26936430                       # number of times a function call or return occured
system.cpu00.num_idle_cycles             702427013.395281                       # Number of idle cycles
system.cpu00.num_int_alu_accesses           503286603                       # Number of integer alu accesses
system.cpu00.num_int_insts                  503286603                       # number of integer instructions
system.cpu00.num_int_register_reads         692072427                       # number of times the integer registers were read
system.cpu00.num_int_register_writes        379838804                       # number of times the integer registers were written
system.cpu00.num_load_insts                  82742732                       # Number of load instructions
system.cpu00.num_mem_refs                   174647686                       # number of memory refs
system.cpu00.num_store_insts                 91904954                       # Number of store instructions
system.cpu00.num_vec_alu_accesses               18324                       # Number of vector alu accesses
system.cpu00.num_vec_insts                      18324                       # number of vector instructions
system.cpu00.num_vec_register_reads             16801                       # number of times the vector registers were read
system.cpu00.num_vec_register_writes             1867                       # number of times the vector registers were written
system.cpu00.op_class::No_OpClass                3628      0.00%      0.00% # Class of executed instruction
system.cpu00.op_class::IntAlu               387604966     68.36%     68.36% # Class of executed instruction
system.cpu00.op_class::IntMult                4628733      0.82%     69.18% # Class of executed instruction
system.cpu00.op_class::IntDiv                  100629      0.02%     69.20% # Class of executed instruction
system.cpu00.op_class::FloatAdd                     0      0.00%     69.20% # Class of executed instruction
system.cpu00.op_class::FloatCmp                     0      0.00%     69.20% # Class of executed instruction
system.cpu00.op_class::FloatCvt                     0      0.00%     69.20% # Class of executed instruction
system.cpu00.op_class::FloatMult                    0      0.00%     69.20% # Class of executed instruction
system.cpu00.op_class::FloatMultAcc                 0      0.00%     69.20% # Class of executed instruction
system.cpu00.op_class::FloatDiv                     0      0.00%     69.20% # Class of executed instruction
system.cpu00.op_class::FloatMisc                 1627      0.00%     69.20% # Class of executed instruction
system.cpu00.op_class::FloatSqrt                    0      0.00%     69.20% # Class of executed instruction
system.cpu00.op_class::SimdAdd                      0      0.00%     69.20% # Class of executed instruction
system.cpu00.op_class::SimdAddAcc                   0      0.00%     69.20% # Class of executed instruction
system.cpu00.op_class::SimdAlu                      0      0.00%     69.20% # Class of executed instruction
system.cpu00.op_class::SimdCmp                      0      0.00%     69.20% # Class of executed instruction
system.cpu00.op_class::SimdCvt                      0      0.00%     69.20% # Class of executed instruction
system.cpu00.op_class::SimdMisc                     0      0.00%     69.20% # Class of executed instruction
system.cpu00.op_class::SimdMult                     0      0.00%     69.20% # Class of executed instruction
system.cpu00.op_class::SimdMultAcc                  0      0.00%     69.20% # Class of executed instruction
system.cpu00.op_class::SimdShift                    0      0.00%     69.20% # Class of executed instruction
system.cpu00.op_class::SimdShiftAcc                 0      0.00%     69.20% # Class of executed instruction
system.cpu00.op_class::SimdDiv                      0      0.00%     69.20% # Class of executed instruction
system.cpu00.op_class::SimdSqrt                     0      0.00%     69.20% # Class of executed instruction
system.cpu00.op_class::SimdFloatAdd                 0      0.00%     69.20% # Class of executed instruction
system.cpu00.op_class::SimdFloatAlu                 0      0.00%     69.20% # Class of executed instruction
system.cpu00.op_class::SimdFloatCmp                 0      0.00%     69.20% # Class of executed instruction
system.cpu00.op_class::SimdFloatCvt                 0      0.00%     69.20% # Class of executed instruction
system.cpu00.op_class::SimdFloatDiv                 0      0.00%     69.20% # Class of executed instruction
system.cpu00.op_class::SimdFloatMisc                0      0.00%     69.20% # Class of executed instruction
system.cpu00.op_class::SimdFloatMult                0      0.00%     69.20% # Class of executed instruction
system.cpu00.op_class::SimdFloatMultAcc             0      0.00%     69.20% # Class of executed instruction
system.cpu00.op_class::SimdFloatSqrt                0      0.00%     69.20% # Class of executed instruction
system.cpu00.op_class::SimdReduceAdd                0      0.00%     69.20% # Class of executed instruction
system.cpu00.op_class::SimdReduceAlu                0      0.00%     69.20% # Class of executed instruction
system.cpu00.op_class::SimdReduceCmp                0      0.00%     69.20% # Class of executed instruction
system.cpu00.op_class::SimdFloatReduceAdd            0      0.00%     69.20% # Class of executed instruction
system.cpu00.op_class::SimdFloatReduceCmp            0      0.00%     69.20% # Class of executed instruction
system.cpu00.op_class::SimdAes                      0      0.00%     69.20% # Class of executed instruction
system.cpu00.op_class::SimdAesMix                   0      0.00%     69.20% # Class of executed instruction
system.cpu00.op_class::SimdSha1Hash                 0      0.00%     69.20% # Class of executed instruction
system.cpu00.op_class::SimdSha1Hash2                0      0.00%     69.20% # Class of executed instruction
system.cpu00.op_class::SimdSha256Hash               0      0.00%     69.20% # Class of executed instruction
system.cpu00.op_class::SimdSha256Hash2              0      0.00%     69.20% # Class of executed instruction
system.cpu00.op_class::SimdShaSigma2                0      0.00%     69.20% # Class of executed instruction
system.cpu00.op_class::SimdShaSigma3                0      0.00%     69.20% # Class of executed instruction
system.cpu00.op_class::SimdPredAlu                  0      0.00%     69.20% # Class of executed instruction
system.cpu00.op_class::MemRead               82742732     14.59%     83.79% # Class of executed instruction
system.cpu00.op_class::MemWrite              91904954     16.21%    100.00% # Class of executed instruction
system.cpu00.op_class::FloatMemRead                 0      0.00%    100.00% # Class of executed instruction
system.cpu00.op_class::FloatMemWrite                0      0.00%    100.00% # Class of executed instruction
system.cpu00.op_class::IprAccess                    0      0.00%    100.00% # Class of executed instruction
system.cpu00.op_class::InstPrefetch                 0      0.00%    100.00% # Class of executed instruction
system.cpu00.op_class::total                566987269                       # Class of executed instruction
system.cpu01.Branches                         2324789                       # Number of branches fetched
system.cpu01.committedInsts                  10241623                       # Number of instructions committed
system.cpu01.committedOps                    12168511                       # Number of ops (including micro ops) committed
system.cpu01.dtb.accesses                     4033166                       # DTB accesses
system.cpu01.dtb.align_faults                       0                       # Number of TLB faults due to alignment restrictions
system.cpu01.dtb.domain_faults                      0                       # Number of TLB faults due to domain restrictions
system.cpu01.dtb.flush_entries                    228                       # Number of entries that have been flushed from TLB
system.cpu01.dtb.flush_tlb                          8                       # Number of times complete TLB was flushed
system.cpu01.dtb.flush_tlb_asid                   490                       # Number of times TLB was flushed by ASID
system.cpu01.dtb.flush_tlb_mva                   1467                       # Number of times TLB was flushed by MVA
system.cpu01.dtb.flush_tlb_mva_asid             58070                       # Number of times TLB was flushed by MVA & ASID
system.cpu01.dtb.hits                         4032173                       # DTB hits
system.cpu01.dtb.inst_accesses                      0                       # ITB inst accesses
system.cpu01.dtb.inst_hits                          0                       # ITB inst hits
system.cpu01.dtb.inst_misses                        0                       # ITB inst misses
system.cpu01.dtb.misses                           993                       # DTB misses
system.cpu01.dtb.perms_faults                      36                       # Number of TLB faults due to permissions restrictions
system.cpu01.dtb.prefetch_faults                  260                       # Number of TLB faults due to prefetch
system.cpu01.dtb.read_accesses                2467036                       # DTB read accesses
system.cpu01.dtb.read_hits                    2466187                       # DTB read hits
system.cpu01.dtb.read_misses                      849                       # DTB read misses
system.cpu01.dtb.stage2_mmu.stage2_tlb.accesses            0                       # DTB accesses
system.cpu01.dtb.stage2_mmu.stage2_tlb.align_faults            0                       # Number of TLB faults due to alignment restrictions
system.cpu01.dtb.stage2_mmu.stage2_tlb.domain_faults            0                       # Number of TLB faults due to domain restrictions
system.cpu01.dtb.stage2_mmu.stage2_tlb.flush_entries            0                       # Number of entries that have been flushed from TLB
system.cpu01.dtb.stage2_mmu.stage2_tlb.flush_tlb            0                       # Number of times complete TLB was flushed
system.cpu01.dtb.stage2_mmu.stage2_tlb.flush_tlb_asid            0                       # Number of times TLB was flushed by ASID
system.cpu01.dtb.stage2_mmu.stage2_tlb.flush_tlb_mva            0                       # Number of times TLB was flushed by MVA
system.cpu01.dtb.stage2_mmu.stage2_tlb.flush_tlb_mva_asid            0                       # Number of times TLB was flushed by MVA & ASID
system.cpu01.dtb.stage2_mmu.stage2_tlb.hits            0                       # DTB hits
system.cpu01.dtb.stage2_mmu.stage2_tlb.inst_accesses            0                       # ITB inst accesses
system.cpu01.dtb.stage2_mmu.stage2_tlb.inst_hits            0                       # ITB inst hits
system.cpu01.dtb.stage2_mmu.stage2_tlb.inst_misses            0                       # ITB inst misses
system.cpu01.dtb.stage2_mmu.stage2_tlb.misses            0                       # DTB misses
system.cpu01.dtb.stage2_mmu.stage2_tlb.perms_faults            0                       # Number of TLB faults due to permissions restrictions
system.cpu01.dtb.stage2_mmu.stage2_tlb.prefetch_faults            0                       # Number of TLB faults due to prefetch
system.cpu01.dtb.stage2_mmu.stage2_tlb.read_accesses            0                       # DTB read accesses
system.cpu01.dtb.stage2_mmu.stage2_tlb.read_hits            0                       # DTB read hits
system.cpu01.dtb.stage2_mmu.stage2_tlb.read_misses            0                       # DTB read misses
system.cpu01.dtb.stage2_mmu.stage2_tlb.walker.walkRequestOrigin_Requested::Data            0                       # Table walker requests started/completed, data/inst
system.cpu01.dtb.stage2_mmu.stage2_tlb.walker.walkRequestOrigin_Requested::Inst            0                       # Table walker requests started/completed, data/inst
system.cpu01.dtb.stage2_mmu.stage2_tlb.walker.walkRequestOrigin_Requested::total            0                       # Table walker requests started/completed, data/inst
system.cpu01.dtb.stage2_mmu.stage2_tlb.walker.walkRequestOrigin_Completed::Data            0                       # Table walker requests started/completed, data/inst
system.cpu01.dtb.stage2_mmu.stage2_tlb.walker.walkRequestOrigin_Completed::Inst            0                       # Table walker requests started/completed, data/inst
system.cpu01.dtb.stage2_mmu.stage2_tlb.walker.walkRequestOrigin_Completed::total            0                       # Table walker requests started/completed, data/inst
system.cpu01.dtb.stage2_mmu.stage2_tlb.walker.walkRequestOrigin::total            0                       # Table walker requests started/completed, data/inst
system.cpu01.dtb.stage2_mmu.stage2_tlb.walker.walks            0                       # Table walker walks requested
system.cpu01.dtb.stage2_mmu.stage2_tlb.write_accesses            0                       # DTB write accesses
system.cpu01.dtb.stage2_mmu.stage2_tlb.write_hits            0                       # DTB write hits
system.cpu01.dtb.stage2_mmu.stage2_tlb.write_misses            0                       # DTB write misses
system.cpu01.dtb.walker.walkPageSizes::4K          878     96.80%     96.80% # Table walker page sizes translated
system.cpu01.dtb.walker.walkPageSizes::2M           21      2.32%     99.12% # Table walker page sizes translated
system.cpu01.dtb.walker.walkPageSizes::1G            8      0.88%    100.00% # Table walker page sizes translated
system.cpu01.dtb.walker.walkPageSizes::total          907                       # Table walker page sizes translated
system.cpu01.dtb.walker.walkRequestOrigin_Requested::Data          993                       # Table walker requests started/completed, data/inst
system.cpu01.dtb.walker.walkRequestOrigin_Requested::Inst            0                       # Table walker requests started/completed, data/inst
system.cpu01.dtb.walker.walkRequestOrigin_Requested::total          993                       # Table walker requests started/completed, data/inst
system.cpu01.dtb.walker.walkRequestOrigin_Completed::Data          907                       # Table walker requests started/completed, data/inst
system.cpu01.dtb.walker.walkRequestOrigin_Completed::Inst            0                       # Table walker requests started/completed, data/inst
system.cpu01.dtb.walker.walkRequestOrigin_Completed::total          907                       # Table walker requests started/completed, data/inst
system.cpu01.dtb.walker.walkRequestOrigin::total         1900                       # Table walker requests started/completed, data/inst
system.cpu01.dtb.walker.walkWaitTime::samples          993                       # Table walker wait (enqueue to first request) latency
system.cpu01.dtb.walker.walkWaitTime::0           993    100.00%    100.00% # Table walker wait (enqueue to first request) latency
system.cpu01.dtb.walker.walkWaitTime::total          993                       # Table walker wait (enqueue to first request) latency
system.cpu01.dtb.walker.walks                     993                       # Table walker walks requested
system.cpu01.dtb.walker.walksLong                 993                       # Table walker walks initiated with long descriptors
system.cpu01.dtb.walker.walksPending::samples    885228180                       # Table walker pending requests distribution
system.cpu01.dtb.walker.walksPending::0     885228180    100.00%    100.00% # Table walker pending requests distribution
system.cpu01.dtb.walker.walksPending::total    885228180                       # Table walker pending requests distribution
system.cpu01.dtb.write_accesses               1566130                       # DTB write accesses
system.cpu01.dtb.write_hits                   1565986                       # DTB write hits
system.cpu01.dtb.write_misses                     144                       # DTB write misses
system.cpu01.idle_fraction                   0.990453                       # Percentage of idle cycles
system.cpu01.itb.accesses                    10241083                       # DTB accesses
system.cpu01.itb.align_faults                       0                       # Number of TLB faults due to alignment restrictions
system.cpu01.itb.domain_faults                      0                       # Number of TLB faults due to domain restrictions
system.cpu01.itb.flush_entries                    202                       # Number of entries that have been flushed from TLB
system.cpu01.itb.flush_tlb                          8                       # Number of times complete TLB was flushed
system.cpu01.itb.flush_tlb_asid                   490                       # Number of times TLB was flushed by ASID
system.cpu01.itb.flush_tlb_mva                   1467                       # Number of times TLB was flushed by MVA
system.cpu01.itb.flush_tlb_mva_asid             58070                       # Number of times TLB was flushed by MVA & ASID
system.cpu01.itb.hits                        10227734                       # DTB hits
system.cpu01.itb.inst_accesses               10241083                       # ITB inst accesses
system.cpu01.itb.inst_hits                   10227734                       # ITB inst hits
system.cpu01.itb.inst_misses                    13349                       # ITB inst misses
system.cpu01.itb.misses                         13349                       # DTB misses
system.cpu01.itb.perms_faults                       0                       # Number of TLB faults due to permissions restrictions
system.cpu01.itb.prefetch_faults                    0                       # Number of TLB faults due to prefetch
system.cpu01.itb.read_accesses                      0                       # DTB read accesses
system.cpu01.itb.read_hits                          0                       # DTB read hits
system.cpu01.itb.read_misses                        0                       # DTB read misses
system.cpu01.itb.stage2_mmu.stage2_tlb.accesses            0                       # DTB accesses
system.cpu01.itb.stage2_mmu.stage2_tlb.align_faults            0                       # Number of TLB faults due to alignment restrictions
system.cpu01.itb.stage2_mmu.stage2_tlb.domain_faults            0                       # Number of TLB faults due to domain restrictions
system.cpu01.itb.stage2_mmu.stage2_tlb.flush_entries            0                       # Number of entries that have been flushed from TLB
system.cpu01.itb.stage2_mmu.stage2_tlb.flush_tlb            0                       # Number of times complete TLB was flushed
system.cpu01.itb.stage2_mmu.stage2_tlb.flush_tlb_asid            0                       # Number of times TLB was flushed by ASID
system.cpu01.itb.stage2_mmu.stage2_tlb.flush_tlb_mva            0                       # Number of times TLB was flushed by MVA
system.cpu01.itb.stage2_mmu.stage2_tlb.flush_tlb_mva_asid            0                       # Number of times TLB was flushed by MVA & ASID
system.cpu01.itb.stage2_mmu.stage2_tlb.hits            0                       # DTB hits
system.cpu01.itb.stage2_mmu.stage2_tlb.inst_accesses            0                       # ITB inst accesses
system.cpu01.itb.stage2_mmu.stage2_tlb.inst_hits            0                       # ITB inst hits
system.cpu01.itb.stage2_mmu.stage2_tlb.inst_misses            0                       # ITB inst misses
system.cpu01.itb.stage2_mmu.stage2_tlb.misses            0                       # DTB misses
system.cpu01.itb.stage2_mmu.stage2_tlb.perms_faults            0                       # Number of TLB faults due to permissions restrictions
system.cpu01.itb.stage2_mmu.stage2_tlb.prefetch_faults            0                       # Number of TLB faults due to prefetch
system.cpu01.itb.stage2_mmu.stage2_tlb.read_accesses            0                       # DTB read accesses
system.cpu01.itb.stage2_mmu.stage2_tlb.read_hits            0                       # DTB read hits
system.cpu01.itb.stage2_mmu.stage2_tlb.read_misses            0                       # DTB read misses
system.cpu01.itb.stage2_mmu.stage2_tlb.walker.walkRequestOrigin_Requested::Data            0                       # Table walker requests started/completed, data/inst
system.cpu01.itb.stage2_mmu.stage2_tlb.walker.walkRequestOrigin_Requested::Inst            0                       # Table walker requests started/completed, data/inst
system.cpu01.itb.stage2_mmu.stage2_tlb.walker.walkRequestOrigin_Requested::total            0                       # Table walker requests started/completed, data/inst
system.cpu01.itb.stage2_mmu.stage2_tlb.walker.walkRequestOrigin_Completed::Data            0                       # Table walker requests started/completed, data/inst
system.cpu01.itb.stage2_mmu.stage2_tlb.walker.walkRequestOrigin_Completed::Inst            0                       # Table walker requests started/completed, data/inst
system.cpu01.itb.stage2_mmu.stage2_tlb.walker.walkRequestOrigin_Completed::total            0                       # Table walker requests started/completed, data/inst
system.cpu01.itb.stage2_mmu.stage2_tlb.walker.walkRequestOrigin::total            0                       # Table walker requests started/completed, data/inst
system.cpu01.itb.stage2_mmu.stage2_tlb.walker.walks            0                       # Table walker walks requested
system.cpu01.itb.stage2_mmu.stage2_tlb.write_accesses            0                       # DTB write accesses
system.cpu01.itb.stage2_mmu.stage2_tlb.write_hits            0                       # DTB write hits
system.cpu01.itb.stage2_mmu.stage2_tlb.write_misses            0                       # DTB write misses
system.cpu01.itb.walker.walkPageSizes::4K        13303     99.76%     99.76% # Table walker page sizes translated
system.cpu01.itb.walker.walkPageSizes::2M           32      0.24%    100.00% # Table walker page sizes translated
system.cpu01.itb.walker.walkPageSizes::total        13335                       # Table walker page sizes translated
system.cpu01.itb.walker.walkRequestOrigin_Requested::Data            0                       # Table walker requests started/completed, data/inst
system.cpu01.itb.walker.walkRequestOrigin_Requested::Inst        13349                       # Table walker requests started/completed, data/inst
system.cpu01.itb.walker.walkRequestOrigin_Requested::total        13349                       # Table walker requests started/completed, data/inst
system.cpu01.itb.walker.walkRequestOrigin_Completed::Data            0                       # Table walker requests started/completed, data/inst
system.cpu01.itb.walker.walkRequestOrigin_Completed::Inst        13335                       # Table walker requests started/completed, data/inst
system.cpu01.itb.walker.walkRequestOrigin_Completed::total        13335                       # Table walker requests started/completed, data/inst
system.cpu01.itb.walker.walkRequestOrigin::total        26684                       # Table walker requests started/completed, data/inst
system.cpu01.itb.walker.walkWaitTime::samples        13349                       # Table walker wait (enqueue to first request) latency
system.cpu01.itb.walker.walkWaitTime::0         13349    100.00%    100.00% # Table walker wait (enqueue to first request) latency
system.cpu01.itb.walker.walkWaitTime::total        13349                       # Table walker wait (enqueue to first request) latency
system.cpu01.itb.walker.walks                   13349                       # Table walker walks requested
system.cpu01.itb.walker.walksLong               13349                       # Table walker walks initiated with long descriptors
system.cpu01.itb.walker.walksPending::samples    885200400                       # Table walker pending requests distribution
system.cpu01.itb.walker.walksPending::0     885200400    100.00%    100.00% # Table walker pending requests distribution
system.cpu01.itb.walker.walksPending::total    885200400                       # Table walker pending requests distribution
system.cpu01.itb.write_accesses                     0                       # DTB write accesses
system.cpu01.itb.write_hits                         0                       # DTB write hits
system.cpu01.itb.write_misses                       0                       # DTB write misses
system.cpu01.kern.inst.arm                          0                       # number of arm instructions executed
system.cpu01.kern.inst.quiesce                   2411                       # number of quiesce instructions executed
system.cpu01.not_idle_fraction               0.009547                       # Percentage of non-idle cycles
system.cpu01.numCycles                     1192723410                       # number of cpu cycles simulated
system.cpu01.numWorkItemsCompleted                  0                       # number of work items this cpu completed
system.cpu01.numWorkItemsStarted                    0                       # number of work items this cpu started
system.cpu01.num_busy_cycles             11386401.044343                       # Number of busy cycles
system.cpu01.num_cc_register_reads            3357084                       # number of times the CC registers were read
system.cpu01.num_cc_register_writes           1729032                       # number of times the CC registers were written
system.cpu01.num_conditional_control_insts      1464354                       # number of instructions that are conditional controls
system.cpu01.num_fp_alu_accesses                    0                       # Number of float alu accesses
system.cpu01.num_fp_insts                           0                       # number of float instructions
system.cpu01.num_fp_register_reads                  0                       # number of times the floating registers were read
system.cpu01.num_fp_register_writes                 0                       # number of times the floating registers were written
system.cpu01.num_func_calls                    802010                       # number of times a function call or return occured
system.cpu01.num_idle_cycles             1181337008.955657                       # Number of idle cycles
system.cpu01.num_int_alu_accesses            11002805                       # Number of integer alu accesses
system.cpu01.num_int_insts                   11002805                       # number of integer instructions
system.cpu01.num_int_register_reads          14300933                       # number of times the integer registers were read
system.cpu01.num_int_register_writes          8665378                       # number of times the integer registers were written
system.cpu01.num_load_insts                   2463851                       # Number of load instructions
system.cpu01.num_mem_refs                     4029913                       # number of memory refs
system.cpu01.num_store_insts                  1566062                       # Number of store instructions
system.cpu01.num_vec_alu_accesses                 993                       # Number of vector alu accesses
system.cpu01.num_vec_insts                        993                       # number of vector instructions
system.cpu01.num_vec_register_reads               881                       # number of times the vector registers were read
system.cpu01.num_vec_register_writes              124                       # number of times the vector registers were written
system.cpu01.op_class::No_OpClass                 694      0.01%      0.01% # Class of executed instruction
system.cpu01.op_class::IntAlu                 8112891     66.67%     66.68% # Class of executed instruction
system.cpu01.op_class::IntMult                  19690      0.16%     66.84% # Class of executed instruction
system.cpu01.op_class::IntDiv                    5469      0.04%     66.88% # Class of executed instruction
system.cpu01.op_class::FloatAdd                     0      0.00%     66.88% # Class of executed instruction
system.cpu01.op_class::FloatCmp                     0      0.00%     66.88% # Class of executed instruction
system.cpu01.op_class::FloatCvt                     0      0.00%     66.88% # Class of executed instruction
system.cpu01.op_class::FloatMult                    0      0.00%     66.88% # Class of executed instruction
system.cpu01.op_class::FloatMultAcc                 0      0.00%     66.88% # Class of executed instruction
system.cpu01.op_class::FloatDiv                     0      0.00%     66.88% # Class of executed instruction
system.cpu01.op_class::FloatMisc                   42      0.00%     66.88% # Class of executed instruction
system.cpu01.op_class::FloatSqrt                    0      0.00%     66.88% # Class of executed instruction
system.cpu01.op_class::SimdAdd                      0      0.00%     66.88% # Class of executed instruction
system.cpu01.op_class::SimdAddAcc                   0      0.00%     66.88% # Class of executed instruction
system.cpu01.op_class::SimdAlu                      0      0.00%     66.88% # Class of executed instruction
system.cpu01.op_class::SimdCmp                      0      0.00%     66.88% # Class of executed instruction
system.cpu01.op_class::SimdCvt                      0      0.00%     66.88% # Class of executed instruction
system.cpu01.op_class::SimdMisc                     0      0.00%     66.88% # Class of executed instruction
system.cpu01.op_class::SimdMult                     0      0.00%     66.88% # Class of executed instruction
system.cpu01.op_class::SimdMultAcc                  0      0.00%     66.88% # Class of executed instruction
system.cpu01.op_class::SimdShift                    0      0.00%     66.88% # Class of executed instruction
system.cpu01.op_class::SimdShiftAcc                 0      0.00%     66.88% # Class of executed instruction
system.cpu01.op_class::SimdDiv                      0      0.00%     66.88% # Class of executed instruction
system.cpu01.op_class::SimdSqrt                     0      0.00%     66.88% # Class of executed instruction
system.cpu01.op_class::SimdFloatAdd                 0      0.00%     66.88% # Class of executed instruction
system.cpu01.op_class::SimdFloatAlu                 0      0.00%     66.88% # Class of executed instruction
system.cpu01.op_class::SimdFloatCmp                 0      0.00%     66.88% # Class of executed instruction
system.cpu01.op_class::SimdFloatCvt                 0      0.00%     66.88% # Class of executed instruction
system.cpu01.op_class::SimdFloatDiv                 0      0.00%     66.88% # Class of executed instruction
system.cpu01.op_class::SimdFloatMisc                0      0.00%     66.88% # Class of executed instruction
system.cpu01.op_class::SimdFloatMult                0      0.00%     66.88% # Class of executed instruction
system.cpu01.op_class::SimdFloatMultAcc             0      0.00%     66.88% # Class of executed instruction
system.cpu01.op_class::SimdFloatSqrt                0      0.00%     66.88% # Class of executed instruction
system.cpu01.op_class::SimdReduceAdd                0      0.00%     66.88% # Class of executed instruction
system.cpu01.op_class::SimdReduceAlu                0      0.00%     66.88% # Class of executed instruction
system.cpu01.op_class::SimdReduceCmp                0      0.00%     66.88% # Class of executed instruction
system.cpu01.op_class::SimdFloatReduceAdd            0      0.00%     66.88% # Class of executed instruction
system.cpu01.op_class::SimdFloatReduceCmp            0      0.00%     66.88% # Class of executed instruction
system.cpu01.op_class::SimdAes                      0      0.00%     66.88% # Class of executed instruction
system.cpu01.op_class::SimdAesMix                   0      0.00%     66.88% # Class of executed instruction
system.cpu01.op_class::SimdSha1Hash                 0      0.00%     66.88% # Class of executed instruction
system.cpu01.op_class::SimdSha1Hash2                0      0.00%     66.88% # Class of executed instruction
system.cpu01.op_class::SimdSha256Hash               0      0.00%     66.88% # Class of executed instruction
system.cpu01.op_class::SimdSha256Hash2              0      0.00%     66.88% # Class of executed instruction
system.cpu01.op_class::SimdShaSigma2                0      0.00%     66.88% # Class of executed instruction
system.cpu01.op_class::SimdShaSigma3                0      0.00%     66.88% # Class of executed instruction
system.cpu01.op_class::SimdPredAlu                  0      0.00%     66.88% # Class of executed instruction
system.cpu01.op_class::MemRead                2463851     20.25%     87.13% # Class of executed instruction
system.cpu01.op_class::MemWrite               1566062     12.87%    100.00% # Class of executed instruction
system.cpu01.op_class::FloatMemRead                 0      0.00%    100.00% # Class of executed instruction
system.cpu01.op_class::FloatMemWrite                0      0.00%    100.00% # Class of executed instruction
system.cpu01.op_class::IprAccess                    0      0.00%    100.00% # Class of executed instruction
system.cpu01.op_class::InstPrefetch                 0      0.00%    100.00% # Class of executed instruction
system.cpu01.op_class::total                 12168699                       # Class of executed instruction
system.cpu02.Branches                         5450450                       # Number of branches fetched
system.cpu02.committedInsts                  25303217                       # Number of instructions committed
system.cpu02.committedOps                    29550482                       # Number of ops (including micro ops) committed
system.cpu02.dtb.accesses                     9416351                       # DTB accesses
system.cpu02.dtb.align_faults                       0                       # Number of TLB faults due to alignment restrictions
system.cpu02.dtb.domain_faults                      0                       # Number of TLB faults due to domain restrictions
system.cpu02.dtb.flush_entries                    217                       # Number of entries that have been flushed from TLB
system.cpu02.dtb.flush_tlb                          8                       # Number of times complete TLB was flushed
system.cpu02.dtb.flush_tlb_asid                   490                       # Number of times TLB was flushed by ASID
system.cpu02.dtb.flush_tlb_mva                   1467                       # Number of times TLB was flushed by MVA
system.cpu02.dtb.flush_tlb_mva_asid             58070                       # Number of times TLB was flushed by MVA & ASID
system.cpu02.dtb.hits                         9412625                       # DTB hits
system.cpu02.dtb.inst_accesses                      0                       # ITB inst accesses
system.cpu02.dtb.inst_hits                          0                       # ITB inst hits
system.cpu02.dtb.inst_misses                        0                       # ITB inst misses
system.cpu02.dtb.misses                          3726                       # DTB misses
system.cpu02.dtb.perms_faults                       0                       # Number of TLB faults due to permissions restrictions
system.cpu02.dtb.prefetch_faults                  784                       # Number of TLB faults due to prefetch
system.cpu02.dtb.read_accesses                5577689                       # DTB read accesses
system.cpu02.dtb.read_hits                    5575002                       # DTB read hits
system.cpu02.dtb.read_misses                     2687                       # DTB read misses
system.cpu02.dtb.stage2_mmu.stage2_tlb.accesses            0                       # DTB accesses
system.cpu02.dtb.stage2_mmu.stage2_tlb.align_faults            0                       # Number of TLB faults due to alignment restrictions
system.cpu02.dtb.stage2_mmu.stage2_tlb.domain_faults            0                       # Number of TLB faults due to domain restrictions
system.cpu02.dtb.stage2_mmu.stage2_tlb.flush_entries            0                       # Number of entries that have been flushed from TLB
system.cpu02.dtb.stage2_mmu.stage2_tlb.flush_tlb            0                       # Number of times complete TLB was flushed
system.cpu02.dtb.stage2_mmu.stage2_tlb.flush_tlb_asid            0                       # Number of times TLB was flushed by ASID
system.cpu02.dtb.stage2_mmu.stage2_tlb.flush_tlb_mva            0                       # Number of times TLB was flushed by MVA
system.cpu02.dtb.stage2_mmu.stage2_tlb.flush_tlb_mva_asid            0                       # Number of times TLB was flushed by MVA & ASID
system.cpu02.dtb.stage2_mmu.stage2_tlb.hits            0                       # DTB hits
system.cpu02.dtb.stage2_mmu.stage2_tlb.inst_accesses            0                       # ITB inst accesses
system.cpu02.dtb.stage2_mmu.stage2_tlb.inst_hits            0                       # ITB inst hits
system.cpu02.dtb.stage2_mmu.stage2_tlb.inst_misses            0                       # ITB inst misses
system.cpu02.dtb.stage2_mmu.stage2_tlb.misses            0                       # DTB misses
system.cpu02.dtb.stage2_mmu.stage2_tlb.perms_faults            0                       # Number of TLB faults due to permissions restrictions
system.cpu02.dtb.stage2_mmu.stage2_tlb.prefetch_faults            0                       # Number of TLB faults due to prefetch
system.cpu02.dtb.stage2_mmu.stage2_tlb.read_accesses            0                       # DTB read accesses
system.cpu02.dtb.stage2_mmu.stage2_tlb.read_hits            0                       # DTB read hits
system.cpu02.dtb.stage2_mmu.stage2_tlb.read_misses            0                       # DTB read misses
system.cpu02.dtb.stage2_mmu.stage2_tlb.walker.walkRequestOrigin_Requested::Data            0                       # Table walker requests started/completed, data/inst
system.cpu02.dtb.stage2_mmu.stage2_tlb.walker.walkRequestOrigin_Requested::Inst            0                       # Table walker requests started/completed, data/inst
system.cpu02.dtb.stage2_mmu.stage2_tlb.walker.walkRequestOrigin_Requested::total            0                       # Table walker requests started/completed, data/inst
system.cpu02.dtb.stage2_mmu.stage2_tlb.walker.walkRequestOrigin_Completed::Data            0                       # Table walker requests started/completed, data/inst
system.cpu02.dtb.stage2_mmu.stage2_tlb.walker.walkRequestOrigin_Completed::Inst            0                       # Table walker requests started/completed, data/inst
system.cpu02.dtb.stage2_mmu.stage2_tlb.walker.walkRequestOrigin_Completed::total            0                       # Table walker requests started/completed, data/inst
system.cpu02.dtb.stage2_mmu.stage2_tlb.walker.walkRequestOrigin::total            0                       # Table walker requests started/completed, data/inst
system.cpu02.dtb.stage2_mmu.stage2_tlb.walker.walks            0                       # Table walker walks requested
system.cpu02.dtb.stage2_mmu.stage2_tlb.write_accesses            0                       # DTB write accesses
system.cpu02.dtb.stage2_mmu.stage2_tlb.write_hits            0                       # DTB write hits
system.cpu02.dtb.stage2_mmu.stage2_tlb.write_misses            0                       # DTB write misses
system.cpu02.dtb.walker.walkPageSizes::4K         3669     99.00%     99.00% # Table walker page sizes translated
system.cpu02.dtb.walker.walkPageSizes::2M           30      0.81%     99.81% # Table walker page sizes translated
system.cpu02.dtb.walker.walkPageSizes::1G            7      0.19%    100.00% # Table walker page sizes translated
system.cpu02.dtb.walker.walkPageSizes::total         3706                       # Table walker page sizes translated
system.cpu02.dtb.walker.walkRequestOrigin_Requested::Data         3726                       # Table walker requests started/completed, data/inst
system.cpu02.dtb.walker.walkRequestOrigin_Requested::Inst            0                       # Table walker requests started/completed, data/inst
system.cpu02.dtb.walker.walkRequestOrigin_Requested::total         3726                       # Table walker requests started/completed, data/inst
system.cpu02.dtb.walker.walkRequestOrigin_Completed::Data         3706                       # Table walker requests started/completed, data/inst
system.cpu02.dtb.walker.walkRequestOrigin_Completed::Inst            0                       # Table walker requests started/completed, data/inst
system.cpu02.dtb.walker.walkRequestOrigin_Completed::total         3706                       # Table walker requests started/completed, data/inst
system.cpu02.dtb.walker.walkRequestOrigin::total         7432                       # Table walker requests started/completed, data/inst
system.cpu02.dtb.walker.walkWaitTime::samples         3726                       # Table walker wait (enqueue to first request) latency
system.cpu02.dtb.walker.walkWaitTime::0          3726    100.00%    100.00% # Table walker wait (enqueue to first request) latency
system.cpu02.dtb.walker.walkWaitTime::total         3726                       # Table walker wait (enqueue to first request) latency
system.cpu02.dtb.walker.walks                    3726                       # Table walker walks requested
system.cpu02.dtb.walker.walksLong                3726                       # Table walker walks initiated with long descriptors
system.cpu02.dtb.walker.walksPending::samples  -1222474676                       # Table walker pending requests distribution
system.cpu02.dtb.walker.walksPending::0   -1222474676    100.00%    100.00% # Table walker pending requests distribution
system.cpu02.dtb.walker.walksPending::total  -1222474676                       # Table walker pending requests distribution
system.cpu02.dtb.write_accesses               3838662                       # DTB write accesses
system.cpu02.dtb.write_hits                   3837623                       # DTB write hits
system.cpu02.dtb.write_misses                    1039                       # DTB write misses
system.cpu02.idle_fraction                   0.976816                       # Percentage of idle cycles
system.cpu02.itb.accesses                    25302902                       # DTB accesses
system.cpu02.itb.align_faults                       0                       # Number of TLB faults due to alignment restrictions
system.cpu02.itb.domain_faults                      0                       # Number of TLB faults due to domain restrictions
system.cpu02.itb.flush_entries                    202                       # Number of entries that have been flushed from TLB
system.cpu02.itb.flush_tlb                          8                       # Number of times complete TLB was flushed
system.cpu02.itb.flush_tlb_asid                   490                       # Number of times TLB was flushed by ASID
system.cpu02.itb.flush_tlb_mva                   1467                       # Number of times TLB was flushed by MVA
system.cpu02.itb.flush_tlb_mva_asid             58070                       # Number of times TLB was flushed by MVA & ASID
system.cpu02.itb.hits                        25264955                       # DTB hits
system.cpu02.itb.inst_accesses               25302902                       # ITB inst accesses
system.cpu02.itb.inst_hits                   25264955                       # ITB inst hits
system.cpu02.itb.inst_misses                    37947                       # ITB inst misses
system.cpu02.itb.misses                         37947                       # DTB misses
system.cpu02.itb.perms_faults                       0                       # Number of TLB faults due to permissions restrictions
system.cpu02.itb.prefetch_faults                    0                       # Number of TLB faults due to prefetch
system.cpu02.itb.read_accesses                      0                       # DTB read accesses
system.cpu02.itb.read_hits                          0                       # DTB read hits
system.cpu02.itb.read_misses                        0                       # DTB read misses
system.cpu02.itb.stage2_mmu.stage2_tlb.accesses            0                       # DTB accesses
system.cpu02.itb.stage2_mmu.stage2_tlb.align_faults            0                       # Number of TLB faults due to alignment restrictions
system.cpu02.itb.stage2_mmu.stage2_tlb.domain_faults            0                       # Number of TLB faults due to domain restrictions
system.cpu02.itb.stage2_mmu.stage2_tlb.flush_entries            0                       # Number of entries that have been flushed from TLB
system.cpu02.itb.stage2_mmu.stage2_tlb.flush_tlb            0                       # Number of times complete TLB was flushed
system.cpu02.itb.stage2_mmu.stage2_tlb.flush_tlb_asid            0                       # Number of times TLB was flushed by ASID
system.cpu02.itb.stage2_mmu.stage2_tlb.flush_tlb_mva            0                       # Number of times TLB was flushed by MVA
system.cpu02.itb.stage2_mmu.stage2_tlb.flush_tlb_mva_asid            0                       # Number of times TLB was flushed by MVA & ASID
system.cpu02.itb.stage2_mmu.stage2_tlb.hits            0                       # DTB hits
system.cpu02.itb.stage2_mmu.stage2_tlb.inst_accesses            0                       # ITB inst accesses
system.cpu02.itb.stage2_mmu.stage2_tlb.inst_hits            0                       # ITB inst hits
system.cpu02.itb.stage2_mmu.stage2_tlb.inst_misses            0                       # ITB inst misses
system.cpu02.itb.stage2_mmu.stage2_tlb.misses            0                       # DTB misses
system.cpu02.itb.stage2_mmu.stage2_tlb.perms_faults            0                       # Number of TLB faults due to permissions restrictions
system.cpu02.itb.stage2_mmu.stage2_tlb.prefetch_faults            0                       # Number of TLB faults due to prefetch
system.cpu02.itb.stage2_mmu.stage2_tlb.read_accesses            0                       # DTB read accesses
system.cpu02.itb.stage2_mmu.stage2_tlb.read_hits            0                       # DTB read hits
system.cpu02.itb.stage2_mmu.stage2_tlb.read_misses            0                       # DTB read misses
system.cpu02.itb.stage2_mmu.stage2_tlb.walker.walkRequestOrigin_Requested::Data            0                       # Table walker requests started/completed, data/inst
system.cpu02.itb.stage2_mmu.stage2_tlb.walker.walkRequestOrigin_Requested::Inst            0                       # Table walker requests started/completed, data/inst
system.cpu02.itb.stage2_mmu.stage2_tlb.walker.walkRequestOrigin_Requested::total            0                       # Table walker requests started/completed, data/inst
system.cpu02.itb.stage2_mmu.stage2_tlb.walker.walkRequestOrigin_Completed::Data            0                       # Table walker requests started/completed, data/inst
system.cpu02.itb.stage2_mmu.stage2_tlb.walker.walkRequestOrigin_Completed::Inst            0                       # Table walker requests started/completed, data/inst
system.cpu02.itb.stage2_mmu.stage2_tlb.walker.walkRequestOrigin_Completed::total            0                       # Table walker requests started/completed, data/inst
system.cpu02.itb.stage2_mmu.stage2_tlb.walker.walkRequestOrigin::total            0                       # Table walker requests started/completed, data/inst
system.cpu02.itb.stage2_mmu.stage2_tlb.walker.walks            0                       # Table walker walks requested
system.cpu02.itb.stage2_mmu.stage2_tlb.write_accesses            0                       # DTB write accesses
system.cpu02.itb.stage2_mmu.stage2_tlb.write_hits            0                       # DTB write hits
system.cpu02.itb.stage2_mmu.stage2_tlb.write_misses            0                       # DTB write misses
system.cpu02.itb.walker.walkPageSizes::4K        37590     99.06%     99.06% # Table walker page sizes translated
system.cpu02.itb.walker.walkPageSizes::2M          357      0.94%    100.00% # Table walker page sizes translated
system.cpu02.itb.walker.walkPageSizes::total        37947                       # Table walker page sizes translated
system.cpu02.itb.walker.walkRequestOrigin_Requested::Data            0                       # Table walker requests started/completed, data/inst
system.cpu02.itb.walker.walkRequestOrigin_Requested::Inst        37947                       # Table walker requests started/completed, data/inst
system.cpu02.itb.walker.walkRequestOrigin_Requested::total        37947                       # Table walker requests started/completed, data/inst
system.cpu02.itb.walker.walkRequestOrigin_Completed::Data            0                       # Table walker requests started/completed, data/inst
system.cpu02.itb.walker.walkRequestOrigin_Completed::Inst        37947                       # Table walker requests started/completed, data/inst
system.cpu02.itb.walker.walkRequestOrigin_Completed::total        37947                       # Table walker requests started/completed, data/inst
system.cpu02.itb.walker.walkRequestOrigin::total        75894                       # Table walker requests started/completed, data/inst
system.cpu02.itb.walker.walkWaitTime::samples        37947                       # Table walker wait (enqueue to first request) latency
system.cpu02.itb.walker.walkWaitTime::0         37947    100.00%    100.00% # Table walker wait (enqueue to first request) latency
system.cpu02.itb.walker.walkWaitTime::total        37947                       # Table walker wait (enqueue to first request) latency
system.cpu02.itb.walker.walks                   37947                       # Table walker walks requested
system.cpu02.itb.walker.walksLong               37947                       # Table walker walks initiated with long descriptors
system.cpu02.itb.walker.walksPending::samples  -1222502456                       # Table walker pending requests distribution
system.cpu02.itb.walker.walksPending::0   -1222502456    100.00%    100.00% # Table walker pending requests distribution
system.cpu02.itb.walker.walksPending::total  -1222502456                       # Table walker pending requests distribution
system.cpu02.itb.write_accesses                     0                       # DTB write accesses
system.cpu02.itb.write_hits                         0                       # DTB write hits
system.cpu02.itb.write_misses                       0                       # DTB write misses
system.cpu02.kern.inst.arm                          0                       # number of arm instructions executed
system.cpu02.kern.inst.quiesce                   3234                       # number of quiesce instructions executed
system.cpu02.not_idle_fraction               0.023184                       # Percentage of non-idle cycles
system.cpu02.numCycles                     1207525529                       # number of cpu cycles simulated
system.cpu02.numWorkItemsCompleted                  0                       # number of work items this cpu completed
system.cpu02.numWorkItemsStarted                    0                       # number of work items this cpu started
system.cpu02.num_busy_cycles             27995575.453507                       # Number of busy cycles
system.cpu02.num_cc_register_reads            7579189                       # number of times the CC registers were read
system.cpu02.num_cc_register_writes           5782152                       # number of times the CC registers were written
system.cpu02.num_conditional_control_insts      3470644                       # number of instructions that are conditional controls
system.cpu02.num_fp_alu_accesses                    0                       # Number of float alu accesses
system.cpu02.num_fp_insts                           0                       # number of float instructions
system.cpu02.num_fp_register_reads                  0                       # number of times the floating registers were read
system.cpu02.num_fp_register_writes                 0                       # number of times the floating registers were written
system.cpu02.num_func_calls                   1775266                       # number of times a function call or return occured
system.cpu02.num_idle_cycles             1179529953.546493                       # Number of idle cycles
system.cpu02.num_int_alu_accesses            27120685                       # Number of integer alu accesses
system.cpu02.num_int_insts                   27120685                       # number of integer instructions
system.cpu02.num_int_register_reads          36464641                       # number of times the integer registers were read
system.cpu02.num_int_register_writes         21773075                       # number of times the integer registers were written
system.cpu02.num_load_insts                   5570588                       # Number of load instructions
system.cpu02.num_mem_refs                     9409096                       # number of memory refs
system.cpu02.num_store_insts                  3838508                       # Number of store instructions
system.cpu02.num_vec_alu_accesses               11756                       # Number of vector alu accesses
system.cpu02.num_vec_insts                      11756                       # number of vector instructions
system.cpu02.num_vec_register_reads             10248                       # number of times the vector registers were read
system.cpu02.num_vec_register_writes             1884                       # number of times the vector registers were written
system.cpu02.op_class::No_OpClass                1608      0.01%      0.01% # Class of executed instruction
system.cpu02.op_class::IntAlu                20021610     67.75%     67.76% # Class of executed instruction
system.cpu02.op_class::IntMult                  63452      0.21%     67.97% # Class of executed instruction
system.cpu02.op_class::IntDiv                   53101      0.18%     68.15% # Class of executed instruction
system.cpu02.op_class::FloatAdd                     0      0.00%     68.15% # Class of executed instruction
system.cpu02.op_class::FloatCmp                     0      0.00%     68.15% # Class of executed instruction
system.cpu02.op_class::FloatCvt                     0      0.00%     68.15% # Class of executed instruction
system.cpu02.op_class::FloatMult                    0      0.00%     68.15% # Class of executed instruction
system.cpu02.op_class::FloatMultAcc                 0      0.00%     68.15% # Class of executed instruction
system.cpu02.op_class::FloatDiv                     0      0.00%     68.15% # Class of executed instruction
system.cpu02.op_class::FloatMisc                 2052      0.01%     68.16% # Class of executed instruction
system.cpu02.op_class::FloatSqrt                    0      0.00%     68.16% # Class of executed instruction
system.cpu02.op_class::SimdAdd                      0      0.00%     68.16% # Class of executed instruction
system.cpu02.op_class::SimdAddAcc                   0      0.00%     68.16% # Class of executed instruction
system.cpu02.op_class::SimdAlu                      0      0.00%     68.16% # Class of executed instruction
system.cpu02.op_class::SimdCmp                      0      0.00%     68.16% # Class of executed instruction
system.cpu02.op_class::SimdCvt                      0      0.00%     68.16% # Class of executed instruction
system.cpu02.op_class::SimdMisc                     0      0.00%     68.16% # Class of executed instruction
system.cpu02.op_class::SimdMult                     0      0.00%     68.16% # Class of executed instruction
system.cpu02.op_class::SimdMultAcc                  0      0.00%     68.16% # Class of executed instruction
system.cpu02.op_class::SimdShift                    0      0.00%     68.16% # Class of executed instruction
system.cpu02.op_class::SimdShiftAcc                 0      0.00%     68.16% # Class of executed instruction
system.cpu02.op_class::SimdDiv                      0      0.00%     68.16% # Class of executed instruction
system.cpu02.op_class::SimdSqrt                     0      0.00%     68.16% # Class of executed instruction
system.cpu02.op_class::SimdFloatAdd                 0      0.00%     68.16% # Class of executed instruction
system.cpu02.op_class::SimdFloatAlu                 0      0.00%     68.16% # Class of executed instruction
system.cpu02.op_class::SimdFloatCmp                 0      0.00%     68.16% # Class of executed instruction
system.cpu02.op_class::SimdFloatCvt                 0      0.00%     68.16% # Class of executed instruction
system.cpu02.op_class::SimdFloatDiv                 0      0.00%     68.16% # Class of executed instruction
system.cpu02.op_class::SimdFloatMisc                0      0.00%     68.16% # Class of executed instruction
system.cpu02.op_class::SimdFloatMult                0      0.00%     68.16% # Class of executed instruction
system.cpu02.op_class::SimdFloatMultAcc             0      0.00%     68.16% # Class of executed instruction
system.cpu02.op_class::SimdFloatSqrt                0      0.00%     68.16% # Class of executed instruction
system.cpu02.op_class::SimdReduceAdd                0      0.00%     68.16% # Class of executed instruction
system.cpu02.op_class::SimdReduceAlu                0      0.00%     68.16% # Class of executed instruction
system.cpu02.op_class::SimdReduceCmp                0      0.00%     68.16% # Class of executed instruction
system.cpu02.op_class::SimdFloatReduceAdd            0      0.00%     68.16% # Class of executed instruction
system.cpu02.op_class::SimdFloatReduceCmp            0      0.00%     68.16% # Class of executed instruction
system.cpu02.op_class::SimdAes                      0      0.00%     68.16% # Class of executed instruction
system.cpu02.op_class::SimdAesMix                   0      0.00%     68.16% # Class of executed instruction
system.cpu02.op_class::SimdSha1Hash                 0      0.00%     68.16% # Class of executed instruction
system.cpu02.op_class::SimdSha1Hash2                0      0.00%     68.16% # Class of executed instruction
system.cpu02.op_class::SimdSha256Hash               0      0.00%     68.16% # Class of executed instruction
system.cpu02.op_class::SimdSha256Hash2              0      0.00%     68.16% # Class of executed instruction
system.cpu02.op_class::SimdShaSigma2                0      0.00%     68.16% # Class of executed instruction
system.cpu02.op_class::SimdShaSigma3                0      0.00%     68.16% # Class of executed instruction
system.cpu02.op_class::SimdPredAlu                  0      0.00%     68.16% # Class of executed instruction
system.cpu02.op_class::MemRead                5570588     18.85%     87.01% # Class of executed instruction
system.cpu02.op_class::MemWrite               3838508     12.99%    100.00% # Class of executed instruction
system.cpu02.op_class::FloatMemRead                 0      0.00%    100.00% # Class of executed instruction
system.cpu02.op_class::FloatMemWrite                0      0.00%    100.00% # Class of executed instruction
system.cpu02.op_class::IprAccess                    0      0.00%    100.00% # Class of executed instruction
system.cpu02.op_class::InstPrefetch                 0      0.00%    100.00% # Class of executed instruction
system.cpu02.op_class::total                 29550919                       # Class of executed instruction
system.cpu03.Branches                         2794286                       # Number of branches fetched
[...]
system.iobus.pkt_size_system.pci_ide.dma::system.iocache.cpu_side     16389048                       # Cumulative packet size per connected master and slave (bytes)
system.iobus.pkt_size_system.pci_ide.dma::total     16389048                       # Cumulative packet size per connected master and slave (bytes)
system.iobus.pkt_size::total                 16529337                       # Cumulative packet size per connected master and slave (bytes)
system.cpu54.numPwrStateTransitions              2545                       # Number of power state transitions
system.cpu54.pwrStateClkGateDist::samples         1259                       # Distribution of time spent in the clock gated state
system.cpu54.pwrStateClkGateDist::mean   5578719528.761716                       # Distribution of time spent in the clock gated state
system.cpu54.pwrStateClkGateDist::stdev  69936523219.758850                       # Distribution of time spent in the clock gated state
system.cpu54.pwrStateClkGateDist::1000-5e+10         1252     99.44%     99.44% # Distribution of time spent in the clock gated state
system.cpu54.pwrStateClkGateDist::5e+10-1e+11            2      0.16%     99.60% # Distribution of time spent in the clock gated state
system.cpu54.pwrStateClkGateDist::2.5e+11-3e+11            3      0.24%     99.84% # Distribution of time spent in the clock gated state
system.cpu54.pwrStateClkGateDist::6e+11-6.5e+11            1      0.08%     99.92% # Distribution of time spent in the clock gated state
system.cpu54.pwrStateClkGateDist::overflows            1      0.08%    100.00% # Distribution of time spent in the clock gated state
system.cpu54.pwrStateClkGateDist::min_value         5556                       # Distribution of time spent in the clock gated state
system.cpu54.pwrStateClkGateDist::max_value 2336851294260                       # Distribution of time spent in the clock gated state
system.cpu54.pwrStateClkGateDist::total          1259                       # Distribution of time spent in the clock gated state
system.cpu54.pwrStateResidencyTicks::ON   57721963249                       # Cumulative time (in ticks) in various power states
system.cpu54.pwrStateResidencyTicks::CLK_GATED 7023607886711                       # Cumulative time (in ticks) in various power states
system.cpu54.icache.pwrStateResidencyTicks::UNDEFINED 7081329849960                       # Cumulative time (in ticks) in various power states
system.cpu54.icache.demand_hits::.cpu54.inst      8760684                       # number of demand (read+write) hits
system.cpu54.icache.demand_hits::total        8760684                       # number of demand (read+write) hits
system.cpu54.icache.overall_hits::.cpu54.inst      8760684                       # number of overall hits
system.cpu54.icache.overall_hits::total       8760684                       # number of overall hits
system.cpu54.icache.demand_misses::.cpu54.inst       105916                       # number of demand (read+write) misses
system.cpu54.icache.demand_misses::total       105916                       # number of demand (read+write) misses
system.cpu54.icache.overall_misses::.cpu54.inst       105916                       # number of overall misses
system.cpu54.icache.overall_misses::total       105916                       # number of overall misses
system.cpu54.icache.demand_accesses::.cpu54.inst      8866600                       # number of demand (read+write) accesses
system.cpu54.icache.demand_accesses::total      8866600                       # number of demand (read+write) accesses
system.cpu54.icache.overall_accesses::.cpu54.inst      8866600                       # number of overall (read+write) accesses
system.cpu54.icache.overall_accesses::total      8866600                       # number of overall (read+write) accesses
system.cpu54.icache.demand_miss_rate::.cpu54.inst     0.011946                       # miss rate for demand accesses
system.cpu54.icache.demand_miss_rate::total     0.011946                       # miss rate for demand accesses
system.cpu54.icache.overall_miss_rate::.cpu54.inst     0.011946                       # miss rate for overall accesses
system.cpu54.icache.overall_miss_rate::total     0.011946                       # miss rate for overall accesses
system.cpu54.icache.blocked_cycles::no_mshrs            0                       # number of cycles access was blocked
system.cpu54.icache.blocked_cycles::no_targets            0                       # number of cycles access was blocked
system.cpu54.icache.blocked::no_mshrs               0                       # number of cycles access was blocked
system.cpu54.icache.blocked::no_targets             0                       # number of cycles access was blocked
system.cpu54.icache.avg_blocked_cycles::no_mshrs          nan                       # average number of cycles each access was blocked
system.cpu54.icache.avg_blocked_cycles::no_targets          nan                       # average number of cycles each access was blocked
system.cpu54.icache.writebacks::.writebacks       105392                       # number of writebacks
system.cpu54.icache.writebacks::total          105392                       # number of writebacks
system.cpu54.icache.replacements               105392                       # number of replacements
system.cpu54.icache.ReadReq_hits::.cpu54.inst      8760684                       # number of ReadReq hits
system.cpu54.icache.ReadReq_hits::total       8760684                       # number of ReadReq hits
system.cpu54.icache.ReadReq_misses::.cpu54.inst       105916                       # number of ReadReq misses
system.cpu54.icache.ReadReq_misses::total       105916                       # number of ReadReq misses
system.cpu54.icache.ReadReq_accesses::.cpu54.inst      8866600                       # number of ReadReq accesses(hits+misses)
system.cpu54.icache.ReadReq_accesses::total      8866600                       # number of ReadReq accesses(hits+misses)
system.cpu54.icache.ReadReq_miss_rate::.cpu54.inst     0.011946                       # miss rate for ReadReq accesses
system.cpu54.icache.ReadReq_miss_rate::total     0.011946                       # miss rate for ReadReq accesses
system.cpu54.icache.tags.pwrStateResidencyTicks::UNDEFINED 7081329849960                       # Cumulative time (in ticks) in various power states
system.cpu54.icache.tags.tagsinuse         211.587683                       # Cycle average of tags in use
system.cpu54.icache.tags.total_refs           8866600                       # Total number of references to valid blocks.
system.cpu54.icache.tags.sampled_refs          105916                       # Sample count of references to valid blocks.
system.cpu54.icache.tags.avg_refs           83.713509                       # Average number of references to valid blocks.
system.cpu54.icache.tags.warmup_cycle    4132608754476                       # Cycle when the warmup percentage was hit.
system.cpu54.icache.tags.occ_blocks::.cpu54.inst   211.587683                       # Average occupied blocks per requestor
system.cpu54.icache.tags.occ_percent::.cpu54.inst     0.413257                       # Average percentage of cache occupancy
system.cpu54.icache.tags.occ_percent::total     0.413257                       # Average percentage of cache occupancy
system.cpu54.icache.tags.occ_task_id_blocks::1024          512                       # Occupied blocks per task id
system.cpu54.icache.tags.age_task_id_blocks_1024::4          512                       # Occupied blocks per task id
system.cpu54.icache.tags.occ_task_id_percent::1024            1                       # Percentage of cache occupancy per task id
system.cpu54.icache.tags.tag_accesses        17839116                       # Number of tag accesses
system.cpu54.icache.tags.data_accesses       17839116                       # Number of data accesses
system.cpu54.dtb.walker.pwrStateResidencyTicks::UNDEFINED 7081329849960                       # Cumulative time (in ticks) in various power states
system.cpu54.dtb.stage2_mmu.stage2_tlb.walker.pwrStateResidencyTicks::UNDEFINED 7081329849960                       # Cumulative time (in ticks) in various power states
system.cpu54.itb.walker.pwrStateResidencyTicks::UNDEFINED 7081329849960                       # Cumulative time (in ticks) in various power states
system.cpu54.itb.stage2_mmu.stage2_tlb.walker.pwrStateResidencyTicks::UNDEFINED 7081329849960                       # Cumulative time (in ticks) in various power states
system.cpu54.dcache.pwrStateResidencyTicks::UNDEFINED 7081329849960                       # Cumulative time (in ticks) in various power states
system.cpu54.dcache.demand_hits::.cpu54.data      3263746                       # number of demand (read+write) hits
system.cpu54.dcache.demand_hits::total        3263746                       # number of demand (read+write) hits
system.cpu54.dcache.overall_hits::.cpu54.data      3286621                       # number of overall hits
system.cpu54.dcache.overall_hits::total       3286621                       # number of overall hits
system.cpu54.dcache.demand_misses::.cpu54.data        74912                       # number of demand (read+write) misses
system.cpu54.dcache.demand_misses::total        74912                       # number of demand (read+write) misses
system.cpu54.dcache.overall_misses::.cpu54.data        78879                       # number of overall misses
system.cpu54.dcache.overall_misses::total        78879                       # number of overall misses
system.cpu54.dcache.demand_accesses::.cpu54.data      3338658                       # number of demand (read+write) accesses
system.cpu54.dcache.demand_accesses::total      3338658                       # number of demand (read+write) accesses
system.cpu54.dcache.overall_accesses::.cpu54.data      3365500                       # number of overall (read+write) accesses
system.cpu54.dcache.overall_accesses::total      3365500                       # number of overall (read+write) accesses
system.cpu54.dcache.demand_miss_rate::.cpu54.data     0.022438                       # miss rate for demand accesses
system.cpu54.dcache.demand_miss_rate::total     0.022438                       # miss rate for demand accesses
system.cpu54.dcache.overall_miss_rate::.cpu54.data     0.023438                       # miss rate for overall accesses
system.cpu54.dcache.overall_miss_rate::total     0.023438                       # miss rate for overall accesses
system.cpu54.dcache.blocked_cycles::no_mshrs            0                       # number of cycles access was blocked
system.cpu54.dcache.blocked_cycles::no_targets            0                       # number of cycles access was blocked
system.cpu54.dcache.blocked::no_mshrs               0                       # number of cycles access was blocked
system.cpu54.dcache.blocked::no_targets             0                       # number of cycles access was blocked
system.cpu54.dcache.avg_blocked_cycles::no_mshrs          nan                       # average number of cycles each access was blocked
system.cpu54.dcache.avg_blocked_cycles::no_targets          nan                       # average number of cycles each access was blocked
system.cpu54.dcache.writebacks::.writebacks        28792                       # number of writebacks
system.cpu54.dcache.writebacks::total           28792                       # number of writebacks
system.cpu54.dcache.replacements                60784                       # number of replacements
system.cpu54.dcache.ReadReq_hits::.cpu54.data      2024002                       # number of ReadReq hits
system.cpu54.dcache.ReadReq_hits::total       2024002                       # number of ReadReq hits
system.cpu54.dcache.ReadReq_misses::.cpu54.data        50968                       # number of ReadReq misses
system.cpu54.dcache.ReadReq_misses::total        50968                       # number of ReadReq misses
system.cpu54.dcache.ReadReq_accesses::.cpu54.data      2074970                       # number of ReadReq accesses(hits+misses)
system.cpu54.dcache.ReadReq_accesses::total      2074970                       # number of ReadReq accesses(hits+misses)
system.cpu54.dcache.ReadReq_miss_rate::.cpu54.data     0.024563                       # miss rate for ReadReq accesses
system.cpu54.dcache.ReadReq_miss_rate::total     0.024563                       # miss rate for ReadReq accesses
system.cpu54.dcache.WriteReq_hits::.cpu54.data      1239336                       # number of WriteReq hits
system.cpu54.dcache.WriteReq_hits::total      1239336                       # number of WriteReq hits
system.cpu54.dcache.WriteReq_misses::.cpu54.data        15242                       # number of WriteReq misses
system.cpu54.dcache.WriteReq_misses::total        15242                       # number of WriteReq misses
system.cpu54.dcache.WriteReq_accesses::.cpu54.data      1254578                       # number of WriteReq accesses(hits+misses)
system.cpu54.dcache.WriteReq_accesses::total      1254578                       # number of WriteReq accesses(hits+misses)
system.cpu54.dcache.WriteReq_miss_rate::.cpu54.data     0.012149                       # miss rate for WriteReq accesses
system.cpu54.dcache.WriteReq_miss_rate::total     0.012149                       # miss rate for WriteReq accesses
system.cpu54.dcache.SoftPFReq_hits::.cpu54.data          141                       # number of SoftPFReq hits
system.cpu54.dcache.SoftPFReq_hits::total          141                       # number of SoftPFReq hits
system.cpu54.dcache.SoftPFReq_misses::.cpu54.data          375                       # number of SoftPFReq misses
system.cpu54.dcache.SoftPFReq_misses::total          375                       # number of SoftPFReq misses
system.cpu54.dcache.SoftPFReq_accesses::.cpu54.data          516                       # number of SoftPFReq accesses(hits+misses)
system.cpu54.dcache.SoftPFReq_accesses::total          516                       # number of SoftPFReq accesses(hits+misses)
system.cpu54.dcache.SoftPFReq_miss_rate::.cpu54.data     0.726744                       # miss rate for SoftPFReq accesses
system.cpu54.dcache.SoftPFReq_miss_rate::total     0.726744                       # miss rate for SoftPFReq accesses
system.cpu54.dcache.SoftPFExReq_hits::.cpu54.data        22734                       # number of SoftPFExReq hits
system.cpu54.dcache.SoftPFExReq_hits::total        22734                       # number of SoftPFExReq hits
system.cpu54.dcache.SoftPFExReq_misses::.cpu54.data         3592                       # number of SoftPFExReq misses
system.cpu54.dcache.SoftPFExReq_misses::total         3592                       # number of SoftPFExReq misses
system.cpu54.dcache.SoftPFExReq_accesses::.cpu54.data        26326                       # number of SoftPFExReq accesses(hits+misses)
system.cpu54.dcache.SoftPFExReq_accesses::total        26326                       # number of SoftPFExReq accesses(hits+misses)
system.cpu54.dcache.SoftPFExReq_miss_rate::.cpu54.data     0.136443                       # miss rate for SoftPFExReq accesses
system.cpu54.dcache.SoftPFExReq_miss_rate::total     0.136443                       # miss rate for SoftPFExReq accesses
system.cpu54.dcache.WriteLineReq_hits::.cpu54.data          408                       # number of WriteLineReq hits
system.cpu54.dcache.WriteLineReq_hits::total          408                       # number of WriteLineReq hits
system.cpu54.dcache.WriteLineReq_misses::.cpu54.data         8702                       # number of WriteLineReq misses
system.cpu54.dcache.WriteLineReq_misses::total         8702                       # number of WriteLineReq misses
system.cpu54.dcache.WriteLineReq_accesses::.cpu54.data         9110                       # number of WriteLineReq accesses(hits+misses)
system.cpu54.dcache.WriteLineReq_accesses::total         9110                       # number of WriteLineReq accesses(hits+misses)
system.cpu54.dcache.WriteLineReq_miss_rate::.cpu54.data     0.955214                       # miss rate for WriteLineReq accesses
system.cpu54.dcache.WriteLineReq_miss_rate::total     0.955214                       # miss rate for WriteLineReq accesses
system.cpu54.dcache.LoadLockedReq_hits::.cpu54.data        30944                       # number of LoadLockedReq hits
system.cpu54.dcache.LoadLockedReq_hits::total        30944                       # number of LoadLockedReq hits
system.cpu54.dcache.LoadLockedReq_misses::.cpu54.data         1062                       # number of LoadLockedReq misses
system.cpu54.dcache.LoadLockedReq_misses::total         1062                       # number of LoadLockedReq misses
system.cpu54.dcache.LoadLockedReq_accesses::.cpu54.data        32006                       # number of LoadLockedReq accesses(hits+misses)
system.cpu54.dcache.LoadLockedReq_accesses::total        32006                       # number of LoadLockedReq accesses(hits+misses)
system.cpu54.dcache.LoadLockedReq_miss_rate::.cpu54.data     0.033181                       # miss rate for LoadLockedReq accesses
system.cpu54.dcache.LoadLockedReq_miss_rate::total     0.033181                       # miss rate for LoadLockedReq accesses
system.cpu54.dcache.StoreCondReq_hits::.cpu54.data        30777                       # number of StoreCondReq hits
system.cpu54.dcache.StoreCondReq_hits::total        30777                       # number of StoreCondReq hits
system.cpu54.dcache.StoreCondReq_misses::.cpu54.data          117                       # number of StoreCondReq misses
system.cpu54.dcache.StoreCondReq_misses::total          117                       # number of StoreCondReq misses
system.cpu54.dcache.StoreCondReq_accesses::.cpu54.data        30894                       # number of StoreCondReq accesses(hits+misses)
system.cpu54.dcache.StoreCondReq_accesses::total        30894                       # number of StoreCondReq accesses(hits+misses)
system.cpu54.dcache.StoreCondReq_miss_rate::.cpu54.data     0.003787                       # miss rate for StoreCondReq accesses
system.cpu54.dcache.StoreCondReq_miss_rate::total     0.003787                       # miss rate for StoreCondReq accesses
system.cpu54.dcache.tags.pwrStateResidencyTicks::UNDEFINED 7081329849960                       # Cumulative time (in ticks) in various power states
system.cpu54.dcache.tags.tagsinuse         313.737680                       # Cycle average of tags in use
system.cpu54.dcache.tags.total_refs           3435739                       # Total number of references to valid blocks.
system.cpu54.dcache.tags.sampled_refs           72945                       # Sample count of references to valid blocks.
system.cpu54.dcache.tags.avg_refs           47.100404                       # Average number of references to valid blocks.
system.cpu54.dcache.tags.warmup_cycle    4132608782256                       # Cycle when the warmup percentage was hit.
system.cpu54.dcache.tags.occ_blocks::.cpu54.data   313.737680                       # Average occupied blocks per requestor
system.cpu54.dcache.tags.occ_percent::.cpu54.data     0.306384                       # Average percentage of cache occupancy
system.cpu54.dcache.tags.occ_percent::total     0.306384                       # Average percentage of cache occupancy
system.cpu54.dcache.tags.occ_task_id_blocks::1024          737                       # Occupied blocks per task id
system.cpu54.dcache.tags.age_task_id_blocks_1024::4          737                       # Occupied blocks per task id
system.cpu54.dcache.tags.occ_task_id_percent::1024     0.719727                       # Percentage of cache occupancy per task id
system.cpu54.dcache.tags.tag_accesses         6944597                       # Number of tag accesses
system.cpu54.dcache.tags.data_accesses        6944597                       # Number of data accesses

---------- End Simulation Statistics   ----------
