
---------- Begin Simulation Statistics ----------
final_tick                               3822641500900                       # Number of ticks from beginning of simulation (restored from checkpoints and never reset)
host_inst_rate                                 526695                       # Simulator instruction rate (inst/s)
host_mem_usage                               20297756                       # Number of bytes of host memory used
host_op_rate                                   615135                       # Simulator op (including micro ops) rate (op/s)
host_seconds                                  3352.23                       # Real time elapsed on the host
host_tick_rate                             1140328161                       # Simulator tick rate (ticks/s)
sim_freq                                 1000000000000                       # Frequency of simulated ticks
sim_insts                                  1765601212                       # Number of instructions simulated
sim_ops                                    2062074622                       # Number of ops (including micro ops) simulated
sim_seconds                                  3.822642                       # Number of seconds simulated
sim_ticks                                3822641500900                       # Number of ticks simulated
system.cpu00.Branches                       118762326                       # Number of branches fetched
system.cpu00.committedInsts                 510125981                       # Number of instructions committed
system.cpu00.committedOps                   584417278                       # Number of ops (including micro ops) committed
system.cpu00.dtb.accesses                   180161234                       # DTB accesses
system.cpu00.dtb.align_faults                       0                       # Number of TLB faults due to alignment restrictions
system.cpu00.dtb.domain_faults                      0                       # Number of TLB faults due to domain restrictions
system.cpu00.dtb.flush_entries                   1109                       # Number of entries that have been flushed from TLB
system.cpu00.dtb.flush_tlb                         13                       # Number of times complete TLB was flushed
system.cpu00.dtb.flush_tlb_asid                   488                       # Number of times TLB was flushed by ASID
system.cpu00.dtb.flush_tlb_mva                   1467                       # Number of times TLB was flushed by MVA
system.cpu00.dtb.flush_tlb_mva_asid             57568                       # Number of times TLB was flushed by MVA & ASID
system.cpu00.dtb.hits                       180116850                       # DTB hits
system.cpu00.dtb.inst_accesses                      0                       # ITB inst accesses
system.cpu00.dtb.inst_hits                          0                       # ITB inst hits
system.cpu00.dtb.inst_misses                        0                       # ITB inst misses
system.cpu00.dtb.misses                         44384                       # DTB misses
system.cpu00.dtb.perms_faults                      49                       # Number of TLB faults due to permissions restrictions
system.cpu00.dtb.prefetch_faults                 7182                       # Number of TLB faults due to prefetch
system.cpu00.dtb.read_accesses               85676002                       # DTB read accesses
system.cpu00.dtb.read_hits                   85636887                       # DTB read hits
system.cpu00.dtb.read_misses                    39115                       # DTB read misses
system.cpu00.dtb.stage2_mmu.stage2_tlb.accesses            0                       # DTB accesses
system.cpu00.dtb.stage2_mmu.stage2_tlb.align_faults            0                       # Number of TLB faults due to alignment restrictions
system.cpu00.dtb.stage2_mmu.stage2_tlb.domain_faults            0                       # Number of TLB faults due to domain restrictions
system.cpu00.dtb.stage2_mmu.stage2_tlb.flush_entries            0                       # Number of entries that have been flushed from TLB
system.cpu00.dtb.stage2_mmu.stage2_tlb.flush_tlb            0                       # Number of times complete TLB was flushed
system.cpu00.dtb.stage2_mmu.stage2_tlb.flush_tlb_asid            0                       # Number of times TLB was flushed by ASID
system.cpu00.dtb.stage2_mmu.stage2_tlb.flush_tlb_mva            0                       # Number of times TLB was flushed by MVA
system.cpu00.dtb.stage2_mmu.stage2_tlb.flush_tlb_mva_asid            0                       # Number of times TLB was flushed by MVA & ASID
system.cpu00.dtb.stage2_mmu.stage2_tlb.hits            0                       # DTB hits
system.cpu00.dtb.stage2_mmu.stage2_tlb.inst_accesses            0                       # ITB inst accesses
system.cpu00.dtb.stage2_mmu.stage2_tlb.inst_hits            0                       # ITB inst hits
system.cpu00.dtb.stage2_mmu.stage2_tlb.inst_misses            0                       # ITB inst misses
system.cpu00.dtb.stage2_mmu.stage2_tlb.misses            0                       # DTB misses
system.cpu00.dtb.stage2_mmu.stage2_tlb.perms_faults            0                       # Number of TLB faults due to permissions restrictions
system.cpu00.dtb.stage2_mmu.stage2_tlb.prefetch_faults            0                       # Number of TLB faults due to prefetch
system.cpu00.dtb.stage2_mmu.stage2_tlb.read_accesses            0                       # DTB read accesses
system.cpu00.dtb.stage2_mmu.stage2_tlb.read_hits            0                       # DTB read hits
system.cpu00.dtb.stage2_mmu.stage2_tlb.read_misses            0                       # DTB read misses
system.cpu00.dtb.stage2_mmu.stage2_tlb.walker.walkRequestOrigin_Requested::Data            0                       # Table walker requests started/completed, data/inst
system.cpu00.dtb.stage2_mmu.stage2_tlb.walker.walkRequestOrigin_Requested::Inst            0                       # Table walker requests started/completed, data/inst
system.cpu00.dtb.stage2_mmu.stage2_tlb.walker.walkRequestOrigin_Requested::total            0                       # Table walker requests started/completed, data/inst
system.cpu00.dtb.stage2_mmu.stage2_tlb.walker.walkRequestOrigin_Completed::Data            0                       # Table walker requests started/completed, data/inst
system.cpu00.dtb.stage2_mmu.stage2_tlb.walker.walkRequestOrigin_Completed::Inst            0                       # Table walker requests started/completed, data/inst
system.cpu00.dtb.stage2_mmu.stage2_tlb.walker.walkRequestOrigin_Completed::total            0                       # Table walker requests started/completed, data/inst
system.cpu00.dtb.stage2_mmu.stage2_tlb.walker.walkRequestOrigin::total            0                       # Table walker requests started/completed, data/inst
system.cpu00.dtb.stage2_mmu.stage2_tlb.walker.walks            0                       # Table walker walks requested
system.cpu00.dtb.stage2_mmu.stage2_tlb.write_accesses            0                       # DTB write accesses
system.cpu00.dtb.stage2_mmu.stage2_tlb.write_hits            0                       # DTB write hits
system.cpu00.dtb.stage2_mmu.stage2_tlb.write_misses            0                       # DTB write misses
system.cpu00.dtb.walker.walkPageSizes::4K        43324     98.04%     98.04% # Table walker page sizes translated
system.cpu00.dtb.walker.walkPageSizes::2M          714      1.62%     99.65% # Table walker page sizes translated
system.cpu00.dtb.walker.walkPageSizes::1G          154      0.35%    100.00% # Table walker page sizes translated
system.cpu00.dtb.walker.walkPageSizes::total        44192                       # Table walker page sizes translated
system.cpu00.dtb.walker.walkRequestOrigin_Requested::Data        44384                       # Table walker requests started/completed, data/inst
system.cpu00.dtb.walker.walkRequestOrigin_Requested::Inst            0                       # Table walker requests started/completed, data/inst
system.cpu00.dtb.walker.walkRequestOrigin_Requested::total        44384                       # Table walker requests started/completed, data/inst
system.cpu00.dtb.walker.walkRequestOrigin_Completed::Data        44192                       # Table walker requests started/completed, data/inst
system.cpu00.dtb.walker.walkRequestOrigin_Completed::Inst            0                       # Table walker requests started/completed, data/inst
system.cpu00.dtb.walker.walkRequestOrigin_Completed::total        44192                       # Table walker requests started/completed, data/inst
system.cpu00.dtb.walker.walkRequestOrigin::total        88576                       # Table walker requests started/completed, data/inst
system.cpu00.dtb.walker.walkWaitTime::samples        44384                       # Table walker wait (enqueue to first request) latency
system.cpu00.dtb.walker.walkWaitTime::0         44384    100.00%    100.00% # Table walker wait (enqueue to first request) latency
system.cpu00.dtb.walker.walkWaitTime::total        44384                       # Table walker wait (enqueue to first request) latency
system.cpu00.dtb.walker.walks                   44384                       # Table walker walks requested
system.cpu00.dtb.walker.walksLong               44384                       # Table walker walks initiated with long descriptors
system.cpu00.dtb.walker.walksPending::samples     13866080                       # Table walker pending requests distribution
system.cpu00.dtb.walker.walksPending::0      13866080    100.00%    100.00% # Table walker pending requests distribution
system.cpu00.dtb.walker.walksPending::total     13866080                       # Table walker pending requests distribution
system.cpu00.dtb.write_accesses              94485232                       # DTB write accesses
system.cpu00.dtb.write_hits                  94479963                       # DTB write hits
system.cpu00.dtb.write_misses                    5269                       # DTB write misses
system.cpu00.idle_fraction                   0.758444                       # Percentage of idle cycles
system.cpu00.itb.accesses                   510034837                       # DTB accesses
system.cpu00.itb.align_faults                       0                       # Number of TLB faults due to alignment restrictions
system.cpu00.itb.domain_faults                      0                       # Number of TLB faults due to domain restrictions
system.cpu00.itb.flush_entries                    286                       # Number of entries that have been flushed from TLB
system.cpu00.itb.flush_tlb                         13                       # Number of times complete TLB was flushed
system.cpu00.itb.flush_tlb_asid                   488                       # Number of times TLB was flushed by ASID
system.cpu00.itb.flush_tlb_mva                   1467                       # Number of times TLB was flushed by MVA
system.cpu00.itb.flush_tlb_mva_asid             57568                       # Number of times TLB was flushed by MVA & ASID
system.cpu00.itb.hits                       509859774                       # DTB hits
system.cpu00.itb.inst_accesses              510034837                       # ITB inst accesses
system.cpu00.itb.inst_hits                  509859774                       # ITB inst hits
system.cpu00.itb.inst_misses                   175063                       # ITB inst misses
system.cpu00.itb.misses                        175063                       # DTB misses
system.cpu00.itb.perms_faults                       0                       # Number of TLB faults due to permissions restrictions
system.cpu00.itb.prefetch_faults                    0                       # Number of TLB faults due to prefetch
system.cpu00.itb.read_accesses                      0                       # DTB read accesses
system.cpu00.itb.read_hits                          0                       # DTB read hits
system.cpu00.itb.read_misses                        0                       # DTB read misses
system.cpu00.itb.stage2_mmu.stage2_tlb.accesses            0                       # DTB accesses
system.cpu00.itb.stage2_mmu.stage2_tlb.align_faults            0                       # Number of TLB faults due to alignment restrictions
system.cpu00.itb.stage2_mmu.stage2_tlb.domain_faults            0                       # Number of TLB faults due to domain restrictions
system.cpu00.itb.stage2_mmu.stage2_tlb.flush_entries            0                       # Number of entries that have been flushed from TLB
system.cpu00.itb.stage2_mmu.stage2_tlb.flush_tlb            0                       # Number of times complete TLB was flushed
system.cpu00.itb.stage2_mmu.stage2_tlb.flush_tlb_asid            0                       # Number of times TLB was flushed by ASID
system.cpu00.itb.stage2_mmu.stage2_tlb.flush_tlb_mva            0                       # Number of times TLB was flushed by MVA
system.cpu00.itb.stage2_mmu.stage2_tlb.flush_tlb_mva_asid            0                       # Number of times TLB was flushed by MVA & ASID
system.cpu00.itb.stage2_mmu.stage2_tlb.hits            0                       # DTB hits
system.cpu00.itb.stage2_mmu.stage2_tlb.inst_accesses            0                       # ITB inst accesses
system.cpu00.itb.stage2_mmu.stage2_tlb.inst_hits            0                       # ITB inst hits
system.cpu00.itb.stage2_mmu.stage2_tlb.inst_misses            0                       # ITB inst misses
system.cpu00.itb.stage2_mmu.stage2_tlb.misses            0                       # DTB misses
system.cpu00.itb.stage2_mmu.stage2_tlb.perms_faults            0                       # Number of TLB faults due to permissions restrictions
system.cpu00.itb.stage2_mmu.stage2_tlb.prefetch_faults            0                       # Number of TLB faults due to prefetch
system.cpu00.itb.stage2_mmu.stage2_tlb.read_accesses            0                       # DTB read accesses
system.cpu00.itb.stage2_mmu.stage2_tlb.read_hits            0                       # DTB read hits
system.cpu00.itb.stage2_mmu.stage2_tlb.read_misses            0                       # DTB read misses
system.cpu00.itb.stage2_mmu.stage2_tlb.walker.walkRequestOrigin_Requested::Data            0                       # Table walker requests started/completed, data/inst
system.cpu00.itb.stage2_mmu.stage2_tlb.walker.walkRequestOrigin_Requested::Inst            0                       # Table walker requests started/completed, data/inst
system.cpu00.itb.stage2_mmu.stage2_tlb.walker.walkRequestOrigin_Requested::total            0                       # Table walker requests started/completed, data/inst
system.cpu00.itb.stage2_mmu.stage2_tlb.walker.walkRequestOrigin_Completed::Data            0                       # Table walker requests started/completed, data/inst
system.cpu00.itb.stage2_mmu.stage2_tlb.walker.walkRequestOrigin_Completed::Inst            0                       # Table walker requests started/completed, data/inst
system.cpu00.itb.stage2_mmu.stage2_tlb.walker.walkRequestOrigin_Completed::total            0                       # Table walker requests started/completed, data/inst
system.cpu00.itb.stage2_mmu.stage2_tlb.walker.walkRequestOrigin::total            0                       # Table walker requests started/completed, data/inst
system.cpu00.itb.stage2_mmu.stage2_tlb.walker.walks            0                       # Table walker walks requested
system.cpu00.itb.stage2_mmu.stage2_tlb.write_accesses            0                       # DTB write accesses
system.cpu00.itb.stage2_mmu.stage2_tlb.write_hits            0                       # DTB write hits
system.cpu00.itb.stage2_mmu.stage2_tlb.write_misses            0                       # DTB write misses
system.cpu00.itb.walker.walkPageSizes::4K       173589     99.17%     99.17% # Table walker page sizes translated
system.cpu00.itb.walker.walkPageSizes::2M         1450      0.83%    100.00% # Table walker page sizes translated
system.cpu00.itb.walker.walkPageSizes::total       175039                       # Table walker page sizes translated
system.cpu00.itb.walker.walkRequestOrigin_Requested::Data            0                       # Table walker requests started/completed, data/inst
system.cpu00.itb.walker.walkRequestOrigin_Requested::Inst       175063                       # Table walker requests started/completed, data/inst
system.cpu00.itb.walker.walkRequestOrigin_Requested::total       175063                       # Table walker requests started/completed, data/inst
system.cpu00.itb.walker.walkRequestOrigin_Completed::Data            0                       # Table walker requests started/completed, data/inst
system.cpu00.itb.walker.walkRequestOrigin_Completed::Inst       175039                       # Table walker requests started/completed, data/inst
system.cpu00.itb.walker.walkRequestOrigin_Completed::total       175039                       # Table walker requests started/completed, data/inst
system.cpu00.itb.walker.walkRequestOrigin::total       350102                       # Table walker requests started/completed, data/inst
system.cpu00.itb.walker.walkWaitTime::samples       175063                       # Table walker wait (enqueue to first request) latency
system.cpu00.itb.walker.walkWaitTime::0        175063    100.00%    100.00% # Table walker wait (enqueue to first request) latency
system.cpu00.itb.walker.walkWaitTime::total       175063                       # Table walker wait (enqueue to first request) latency
system.cpu00.itb.walker.walks                  175063                       # Table walker walks requested
system.cpu00.itb.walker.walksLong              175063                       # Table walker walks initiated with long descriptors
system.cpu00.itb.walker.walksPending::samples     13858180                       # Table walker pending requests distribution
system.cpu00.itb.walker.walksPending::0      13858180    100.00%    100.00% # Table walker pending requests distribution
system.cpu00.itb.walker.walksPending::total     13858180                       # Table walker pending requests distribution
system.cpu00.itb.write_accesses                     0                       # DTB write accesses
system.cpu00.itb.write_hits                         0                       # DTB write hits
system.cpu00.itb.write_misses                       0                       # DTB write misses
system.cpu00.kern.inst.arm                          0                       # number of arm instructions executed
system.cpu00.kern.inst.quiesce                   3069                       # number of quiesce instructions executed
system.cpu00.not_idle_fraction               0.241556                       # Percentage of non-idle cycles
system.cpu00.numCycles                     2416911806                       # number of cpu cycles simulated
system.cpu00.numWorkItemsCompleted                  0                       # number of work items this cpu completed
system.cpu00.numWorkItemsStarted                    0                       # number of work items this cpu started
system.cpu00.num_busy_cycles             583818435.573009                       # Number of busy cycles
system.cpu00.num_cc_register_reads          145456585                       # number of times the CC registers were read
system.cpu00.num_cc_register_writes         144464961                       # number of times the CC registers were written
system.cpu00.num_conditional_control_insts     72247236                       # number of instructions that are conditional controls
system.cpu00.num_fp_alu_accesses                    0                       # Number of float alu accesses
system.cpu00.num_fp_insts                           0                       # number of float instructions
system.cpu00.num_fp_register_reads                  0                       # number of times the floating registers were read
system.cpu00.num_fp_register_writes                 0                       # number of times the floating registers were written
system.cpu00.num_func_calls                  27988144                       # number of times a function call or return occured
system.cpu00.num_idle_cycles             1833093370.426991                       # Number of idle cycles
system.cpu00.num_int_alu_accesses           519446820                       # Number of integer alu accesses
system.cpu00.num_int_insts                  519446820                       # number of integer instructions
system.cpu00.num_int_register_reads         714316742                       # number of times the integer registers were read
system.cpu00.num_int_register_writes        392791536                       # number of times the integer registers were written
system.cpu00.num_load_insts                  85601170                       # Number of load instructions
system.cpu00.num_mem_refs                   180104105                       # number of memory refs
system.cpu00.num_store_insts                 94502935                       # Number of store instructions
system.cpu00.num_vec_alu_accesses               38432                       # Number of vector alu accesses
system.cpu00.num_vec_insts                      38432                       # number of vector instructions
system.cpu00.num_vec_register_reads             34227                       # number of times the vector registers were read
system.cpu00.num_vec_register_writes             5185                       # number of times the vector registers were written
system.cpu00.op_class::No_OpClass                6496      0.00%      0.00% # Class of executed instruction
system.cpu00.op_class::IntAlu               399504160     68.36%     68.36% # Class of executed instruction
system.cpu00.op_class::IntMult                4666951      0.80%     69.16% # Class of executed instruction
system.cpu00.op_class::IntDiv                  132587      0.02%     69.18% # Class of executed instruction
system.cpu00.op_class::FloatAdd                     0      0.00%     69.18% # Class of executed instruction
system.cpu00.op_class::FloatCmp                     0      0.00%     69.18% # Class of executed instruction
system.cpu00.op_class::FloatCvt                     0      0.00%     69.18% # Class of executed instruction
system.cpu00.op_class::FloatMult                    0      0.00%     69.18% # Class of executed instruction
system.cpu00.op_class::FloatMultAcc                 0      0.00%     69.18% # Class of executed instruction
system.cpu00.op_class::FloatDiv                     0      0.00%     69.18% # Class of executed instruction
system.cpu00.op_class::FloatMisc                 4611      0.00%     69.18% # Class of executed instruction
system.cpu00.op_class::FloatSqrt                    0      0.00%     69.18% # Class of executed instruction
system.cpu00.op_class::SimdAdd                      0      0.00%     69.18% # Class of executed instruction
system.cpu00.op_class::SimdAddAcc                   0      0.00%     69.18% # Class of executed instruction
system.cpu00.op_class::SimdAlu                      0      0.00%     69.18% # Class of executed instruction
system.cpu00.op_class::SimdCmp                      0      0.00%     69.18% # Class of executed instruction
system.cpu00.op_class::SimdCvt                      0      0.00%     69.18% # Class of executed instruction
system.cpu00.op_class::SimdMisc                     0      0.00%     69.18% # Class of executed instruction
system.cpu00.op_class::SimdMult                     0      0.00%     69.18% # Class of executed instruction
system.cpu00.op_class::SimdMultAcc                  0      0.00%     69.18% # Class of executed instruction
system.cpu00.op_class::SimdShift                    0      0.00%     69.18% # Class of executed instruction
system.cpu00.op_class::SimdShiftAcc                 0      0.00%     69.18% # Class of executed instruction
system.cpu00.op_class::SimdDiv                      0      0.00%     69.18% # Class of executed instruction
system.cpu00.op_class::SimdSqrt                     0      0.00%     69.18% # Class of executed instruction
system.cpu00.op_class::SimdFloatAdd                 0      0.00%     69.18% # Class of executed instruction
system.cpu00.op_class::SimdFloatAlu                 0      0.00%     69.18% # Class of executed instruction
system.cpu00.op_class::SimdFloatCmp                 0      0.00%     69.18% # Class of executed instruction
system.cpu00.op_class::SimdFloatCvt                 0      0.00%     69.18% # Class of executed instruction
system.cpu00.op_class::SimdFloatDiv                 0      0.00%     69.18% # Class of executed instruction
system.cpu00.op_class::SimdFloatMisc                0      0.00%     69.18% # Class of executed instruction
system.cpu00.op_class::SimdFloatMult                0      0.00%     69.18% # Class of executed instruction
system.cpu00.op_class::SimdFloatMultAcc             0      0.00%     69.18% # Class of executed instruction
system.cpu00.op_class::SimdFloatSqrt                0      0.00%     69.18% # Class of executed instruction
system.cpu00.op_class::SimdReduceAdd                0      0.00%     69.18% # Class of executed instruction
system.cpu00.op_class::SimdReduceAlu                0      0.00%     69.18% # Class of executed instruction
system.cpu00.op_class::SimdReduceCmp                0      0.00%     69.18% # Class of executed instruction
system.cpu00.op_class::SimdFloatReduceAdd            0      0.00%     69.18% # Class of executed instruction
system.cpu00.op_class::SimdFloatReduceCmp            0      0.00%     69.18% # Class of executed instruction
system.cpu00.op_class::SimdAes                      0      0.00%     69.18% # Class of executed instruction
system.cpu00.op_class::SimdAesMix                   0      0.00%     69.18% # Class of executed instruction
system.cpu00.op_class::SimdSha1Hash                 0      0.00%     69.18% # Class of executed instruction
system.cpu00.op_class::SimdSha1Hash2                0      0.00%     69.18% # Class of executed instruction
system.cpu00.op_class::SimdSha256Hash               0      0.00%     69.18% # Class of executed instruction
system.cpu00.op_class::SimdSha256Hash2              0      0.00%     69.18% # Class of executed instruction
system.cpu00.op_class::SimdShaSigma2                0      0.00%     69.18% # Class of executed instruction
system.cpu00.op_class::SimdShaSigma3                0      0.00%     69.18% # Class of executed instruction
system.cpu00.op_class::SimdPredAlu                  0      0.00%     69.18% # Class of executed instruction
system.cpu00.op_class::MemRead               85601170     14.65%     83.83% # Class of executed instruction
system.cpu00.op_class::MemWrite              94502935     16.17%    100.00% # Class of executed instruction
system.cpu00.op_class::FloatMemRead                 0      0.00%    100.00% # Class of executed instruction
system.cpu00.op_class::FloatMemWrite                0      0.00%    100.00% # Class of executed instruction
system.cpu00.op_class::IprAccess                    0      0.00%    100.00% # Class of executed instruction
system.cpu00.op_class::InstPrefetch                 0      0.00%    100.00% # Class of executed instruction
system.cpu00.op_class::total                584418910                       # Class of executed instruction
system.cpu01.Branches                         3179556                       # Number of branches fetched
system.cpu01.committedInsts                  14236931                       # Number of instructions committed
system.cpu01.committedOps                    16710583                       # Number of ops (including micro ops) committed
system.cpu01.dtb.accesses                     5545817                       # DTB accesses
system.cpu01.dtb.align_faults                       0                       # Number of TLB faults due to alignment restrictions
system.cpu01.dtb.domain_faults                      0                       # Number of TLB faults due to domain restrictions
system.cpu01.dtb.flush_entries                    454                       # Number of entries that have been flushed from TLB
system.cpu01.dtb.flush_tlb                          8                       # Number of times complete TLB was flushed
system.cpu01.dtb.flush_tlb_asid                   488                       # Number of times TLB was flushed by ASID
system.cpu01.dtb.flush_tlb_mva                   1467                       # Number of times TLB was flushed by MVA
system.cpu01.dtb.flush_tlb_mva_asid             57568                       # Number of times TLB was flushed by MVA & ASID
system.cpu01.dtb.hits                         5543454                       # DTB hits
system.cpu01.dtb.inst_accesses                      0                       # ITB inst accesses
system.cpu01.dtb.inst_hits                          0                       # ITB inst hits
system.cpu01.dtb.inst_misses                        0                       # ITB inst misses
system.cpu01.dtb.misses                          2363                       # DTB misses
system.cpu01.dtb.perms_faults                      56                       # Number of TLB faults due to permissions restrictions
system.cpu01.dtb.prefetch_faults                  585                       # Number of TLB faults due to prefetch
system.cpu01.dtb.read_accesses                3416792                       # DTB read accesses
system.cpu01.dtb.read_hits                    3414751                       # DTB read hits
system.cpu01.dtb.read_misses                     2041                       # DTB read misses
system.cpu01.dtb.stage2_mmu.stage2_tlb.accesses            0                       # DTB accesses
system.cpu01.dtb.stage2_mmu.stage2_tlb.align_faults            0                       # Number of TLB faults due to alignment restrictions
system.cpu01.dtb.stage2_mmu.stage2_tlb.domain_faults            0                       # Number of TLB faults due to domain restrictions
system.cpu01.dtb.stage2_mmu.stage2_tlb.flush_entries            0                       # Number of entries that have been flushed from TLB
system.cpu01.dtb.stage2_mmu.stage2_tlb.flush_tlb            0                       # Number of times complete TLB was flushed
system.cpu01.dtb.stage2_mmu.stage2_tlb.flush_tlb_asid            0                       # Number of times TLB was flushed by ASID
system.cpu01.dtb.stage2_mmu.stage2_tlb.flush_tlb_mva            0                       # Number of times TLB was flushed by MVA
system.cpu01.dtb.stage2_mmu.stage2_tlb.flush_tlb_mva_asid            0                       # Number of times TLB was flushed by MVA & ASID
system.cpu01.dtb.stage2_mmu.stage2_tlb.hits            0                       # DTB hits
system.cpu01.dtb.stage2_mmu.stage2_tlb.inst_accesses            0                       # ITB inst accesses
system.cpu01.dtb.stage2_mmu.stage2_tlb.inst_hits            0                       # ITB inst hits
system.cpu01.dtb.stage2_mmu.stage2_tlb.inst_misses            0                       # ITB inst misses
system.cpu01.dtb.stage2_mmu.stage2_tlb.misses            0                       # DTB misses
system.cpu01.dtb.stage2_mmu.stage2_tlb.perms_faults            0                       # Number of TLB faults due to permissions restrictions
system.cpu01.dtb.stage2_mmu.stage2_tlb.prefetch_faults            0                       # Number of TLB faults due to prefetch
system.cpu01.dtb.stage2_mmu.stage2_tlb.read_accesses            0                       # DTB read accesses
system.cpu01.dtb.stage2_mmu.stage2_tlb.read_hits            0                       # DTB read hits
system.cpu01.dtb.stage2_mmu.stage2_tlb.read_misses            0                       # DTB read misses
system.cpu01.dtb.stage2_mmu.stage2_tlb.walker.walkRequestOrigin_Requested::Data            0                       # Table walker requests started/completed, data/inst
system.cpu01.dtb.stage2_mmu.stage2_tlb.walker.walkRequestOrigin_Requested::Inst            0                       # Table walker requests started/completed, data/inst
system.cpu01.dtb.stage2_mmu.stage2_tlb.walker.walkRequestOrigin_Requested::total            0                       # Table walker requests started/completed, data/inst
system.cpu01.dtb.stage2_mmu.stage2_tlb.walker.walkRequestOrigin_Completed::Data            0                       # Table walker requests started/completed, data/inst
system.cpu01.dtb.stage2_mmu.stage2_tlb.walker.walkRequestOrigin_Completed::Inst            0                       # Table walker requests started/completed, data/inst
system.cpu01.dtb.stage2_mmu.stage2_tlb.walker.walkRequestOrigin_Completed::total            0                       # Table walker requests started/completed, data/inst
system.cpu01.dtb.stage2_mmu.stage2_tlb.walker.walkRequestOrigin::total            0                       # Table walker requests started/completed, data/inst
system.cpu01.dtb.stage2_mmu.stage2_tlb.walker.walks            0                       # Table walker walks requested
system.cpu01.dtb.stage2_mmu.stage2_tlb.write_accesses            0                       # DTB write accesses
system.cpu01.dtb.stage2_mmu.stage2_tlb.write_hits            0                       # DTB write hits
system.cpu01.dtb.stage2_mmu.stage2_tlb.write_misses            0                       # DTB write misses
system.cpu01.dtb.walker.walkPageSizes::4K         2183     97.63%     97.63% # Table walker page sizes translated
system.cpu01.dtb.walker.walkPageSizes::2M           37      1.65%     99.28% # Table walker page sizes translated
system.cpu01.dtb.walker.walkPageSizes::1G           16      0.72%    100.00% # Table walker page sizes translated
system.cpu01.dtb.walker.walkPageSizes::total         2236                       # Table walker page sizes translated
system.cpu01.dtb.walker.walkRequestOrigin_Requested::Data         2363                       # Table walker requests started/completed, data/inst
system.cpu01.dtb.walker.walkRequestOrigin_Requested::Inst            0                       # Table walker requests started/completed, data/inst
system.cpu01.dtb.walker.walkRequestOrigin_Requested::total         2363                       # Table walker requests started/completed, data/inst
system.cpu01.dtb.walker.walkRequestOrigin_Completed::Data         2236                       # Table walker requests started/completed, data/inst
system.cpu01.dtb.walker.walkRequestOrigin_Completed::Inst            0                       # Table walker requests started/completed, data/inst
system.cpu01.dtb.walker.walkRequestOrigin_Completed::total         2236                       # Table walker requests started/completed, data/inst
system.cpu01.dtb.walker.walkRequestOrigin::total         4599                       # Table walker requests started/completed, data/inst
system.cpu01.dtb.walker.walkWaitTime::samples         2363                       # Table walker wait (enqueue to first request) latency
system.cpu01.dtb.walker.walkWaitTime::0          2363    100.00%    100.00% # Table walker wait (enqueue to first request) latency
system.cpu01.dtb.walker.walkWaitTime::total         2363                       # Table walker wait (enqueue to first request) latency
system.cpu01.dtb.walker.walks                    2363                       # Table walker walks requested
system.cpu01.dtb.walker.walksLong                2363                       # Table walker walks initiated with long descriptors
system.cpu01.dtb.walker.walksPending::samples    -97804488                       # Table walker pending requests distribution
system.cpu01.dtb.walker.walksPending::0     -97804488    100.00%    100.00% # Table walker pending requests distribution
system.cpu01.dtb.walker.walksPending::total    -97804488                       # Table walker pending requests distribution
system.cpu01.dtb.write_accesses               2129025                       # DTB write accesses
system.cpu01.dtb.write_hits                   2128703                       # DTB write hits
system.cpu01.dtb.write_misses                     322                       # DTB write misses
system.cpu01.idle_fraction                   0.993093                       # Percentage of idle cycles
system.cpu01.itb.accesses                    14236688                       # DTB accesses
system.cpu01.itb.align_faults                       0                       # Number of TLB faults due to alignment restrictions
system.cpu01.itb.domain_faults                      0                       # Number of TLB faults due to domain restrictions
system.cpu01.itb.flush_entries                    394                       # Number of entries that have been flushed from TLB
system.cpu01.itb.flush_tlb                          8                       # Number of times complete TLB was flushed
system.cpu01.itb.flush_tlb_asid                   488                       # Number of times TLB was flushed by ASID
system.cpu01.itb.flush_tlb_mva                   1467                       # Number of times TLB was flushed by MVA
system.cpu01.itb.flush_tlb_mva_asid             57568                       # Number of times TLB was flushed by MVA & ASID
system.cpu01.itb.hits                        14219037                       # DTB hits
system.cpu01.itb.inst_accesses               14236688                       # ITB inst accesses
system.cpu01.itb.inst_hits                   14219037                       # ITB inst hits
system.cpu01.itb.inst_misses                    17651                       # ITB inst misses
system.cpu01.itb.misses                         17651                       # DTB misses
system.cpu01.itb.perms_faults                       0                       # Number of TLB faults due to permissions restrictions
system.cpu01.itb.prefetch_faults                    0                       # Number of TLB faults due to prefetch
system.cpu01.itb.read_accesses                      0                       # DTB read accesses
system.cpu01.itb.read_hits                          0                       # DTB read hits
system.cpu01.itb.read_misses                        0                       # DTB read misses
system.cpu01.itb.stage2_mmu.stage2_tlb.accesses            0                       # DTB accesses
system.cpu01.itb.stage2_mmu.stage2_tlb.align_faults            0                       # Number of TLB faults due to alignment restrictions
system.cpu01.itb.stage2_mmu.stage2_tlb.domain_faults            0                       # Number of TLB faults due to domain restrictions
system.cpu01.itb.stage2_mmu.stage2_tlb.flush_entries            0                       # Number of entries that have been flushed from TLB
system.cpu01.itb.stage2_mmu.stage2_tlb.flush_tlb            0                       # Number of times complete TLB was flushed
system.cpu01.itb.stage2_mmu.stage2_tlb.flush_tlb_asid            0                       # Number of times TLB was flushed by ASID
system.cpu01.itb.stage2_mmu.stage2_tlb.flush_tlb_mva            0                       # Number of times TLB was flushed by MVA
system.cpu01.itb.stage2_mmu.stage2_tlb.flush_tlb_mva_asid            0                       # Number of times TLB was flushed by MVA & ASID
system.cpu01.itb.stage2_mmu.stage2_tlb.hits            0                       # DTB hits
system.cpu01.itb.stage2_mmu.stage2_tlb.inst_accesses            0                       # ITB inst accesses
system.cpu01.itb.stage2_mmu.stage2_tlb.inst_hits            0                       # ITB inst hits
system.cpu01.itb.stage2_mmu.stage2_tlb.inst_misses            0                       # ITB inst misses
system.cpu01.itb.stage2_mmu.stage2_tlb.misses            0                       # DTB misses
system.cpu01.itb.stage2_mmu.stage2_tlb.perms_faults            0                       # Number of TLB faults due to permissions restrictions
system.cpu01.itb.stage2_mmu.stage2_tlb.prefetch_faults            0                       # Number of TLB faults due to prefetch
system.cpu01.itb.stage2_mmu.stage2_tlb.read_accesses            0                       # DTB read accesses
system.cpu01.itb.stage2_mmu.stage2_tlb.read_hits            0                       # DTB read hits
system.cpu01.itb.stage2_mmu.stage2_tlb.read_misses            0                       # DTB read misses
system.cpu01.itb.stage2_mmu.stage2_tlb.walker.walkRequestOrigin_Requested::Data            0                       # Table walker requests started/completed, data/inst
system.cpu01.itb.stage2_mmu.stage2_tlb.walker.walkRequestOrigin_Requested::Inst            0                       # Table walker requests started/completed, data/inst
system.cpu01.itb.stage2_mmu.stage2_tlb.walker.walkRequestOrigin_Requested::total            0                       # Table walker requests started/completed, data/inst
system.cpu01.itb.stage2_mmu.stage2_tlb.walker.walkRequestOrigin_Completed::Data            0                       # Table walker requests started/completed, data/inst
system.cpu01.itb.stage2_mmu.stage2_tlb.walker.walkRequestOrigin_Completed::Inst            0                       # Table walker requests started/completed, data/inst
system.cpu01.itb.stage2_mmu.stage2_tlb.walker.walkRequestOrigin_Completed::total            0                       # Table walker requests started/completed, data/inst
system.cpu01.itb.stage2_mmu.stage2_tlb.walker.walkRequestOrigin::total            0                       # Table walker requests started/completed, data/inst
system.cpu01.itb.stage2_mmu.stage2_tlb.walker.walks            0                       # Table walker walks requested
system.cpu01.itb.stage2_mmu.stage2_tlb.write_accesses            0                       # DTB write accesses
system.cpu01.itb.stage2_mmu.stage2_tlb.write_hits            0                       # DTB write hits
system.cpu01.itb.stage2_mmu.stage2_tlb.write_misses            0                       # DTB write misses
system.cpu01.itb.walker.walkPageSizes::4K        17539     99.68%     99.68% # Table walker page sizes translated
system.cpu01.itb.walker.walkPageSizes::2M           57      0.32%    100.00% # Table walker page sizes translated
system.cpu01.itb.walker.walkPageSizes::total        17596                       # Table walker page sizes translated
system.cpu01.itb.walker.walkRequestOrigin_Requested::Data            0                       # Table walker requests started/completed, data/inst
system.cpu01.itb.walker.walkRequestOrigin_Requested::Inst        17651                       # Table walker requests started/completed, data/inst
system.cpu01.itb.walker.walkRequestOrigin_Requested::total        17651                       # Table walker requests started/completed, data/inst
system.cpu01.itb.walker.walkRequestOrigin_Completed::Data            0                       # Table walker requests started/completed, data/inst
system.cpu01.itb.walker.walkRequestOrigin_Completed::Inst        17596                       # Table walker requests started/completed, data/inst
system.cpu01.itb.walker.walkRequestOrigin_Completed::total        17596                       # Table walker requests started/completed, data/inst
system.cpu01.itb.walker.walkRequestOrigin::total        35247                       # Table walker requests started/completed, data/inst
system.cpu01.itb.walker.walkWaitTime::samples        17651                       # Table walker wait (enqueue to first request) latency
system.cpu01.itb.walker.walkWaitTime::0         17651    100.00%    100.00% # Table walker wait (enqueue to first request) latency
system.cpu01.itb.walker.walkWaitTime::total        17651                       # Table walker wait (enqueue to first request) latency
system.cpu01.itb.walker.walks                   17651                       # Table walker walks requested
system.cpu01.itb.walker.walksLong               17651                       # Table walker walks initiated with long descriptors
system.cpu01.itb.walker.walksPending::samples    -97812388                       # Table walker pending requests distribution
system.cpu01.itb.walker.walksPending::0     -97812388    100.00%    100.00% # Table walker pending requests distribution
system.cpu01.itb.walker.walksPending::total    -97812388                       # Table walker pending requests distribution
system.cpu01.itb.write_accesses                     0                       # DTB write accesses
system.cpu01.itb.write_hits                         0                       # DTB write hits
system.cpu01.itb.write_misses                       0                       # DTB write misses
system.cpu01.kern.inst.arm                          0                       # number of arm instructions executed
system.cpu01.kern.inst.quiesce                   1981                       # number of quiesce instructions executed
system.cpu01.not_idle_fraction               0.006907                       # Percentage of non-idle cycles
system.cpu01.numCycles                     2366370202                       # number of cpu cycles simulated
system.cpu01.numWorkItemsCompleted                  0                       # number of work items this cpu completed
system.cpu01.numWorkItemsStarted                    0                       # number of work items this cpu started
system.cpu01.num_busy_cycles             16344226.847756                       # Number of busy cycles
system.cpu01.num_cc_register_reads            4474225                       # number of times the CC registers were read
system.cpu01.num_cc_register_writes           2822424                       # number of times the CC registers were written
system.cpu01.num_conditional_control_insts      2074582                       # number of instructions that are conditional controls
system.cpu01.num_fp_alu_accesses                    0                       # Number of float alu accesses
system.cpu01.num_fp_insts                           0                       # number of float instructions
system.cpu01.num_fp_register_reads                  0                       # number of times the floating registers were read
system.cpu01.num_fp_register_writes                 0                       # number of times the floating registers were written
system.cpu01.num_func_calls                   1005719                       # number of times a function call or return occured
system.cpu01.num_idle_cycles             2350025975.152244                       # Number of idle cycles
system.cpu01.num_int_alu_accesses            15208004                       # Number of integer alu accesses
system.cpu01.num_int_insts                   15208004                       # number of integer instructions
system.cpu01.num_int_register_reads          19959088                       # number of times the integer registers were read
system.cpu01.num_int_register_writes         12007550                       # number of times the integer registers were written
system.cpu01.num_load_insts                   3406742                       # Number of load instructions
system.cpu01.num_mem_refs                     5535527                       # number of memory refs
system.cpu01.num_store_insts                  2128785                       # Number of store instructions
system.cpu01.num_vec_alu_accesses                5322                       # Number of vector alu accesses
system.cpu01.num_vec_insts                       5322                       # number of vector instructions
system.cpu01.num_vec_register_reads              3960                       # number of times the vector registers were read
system.cpu01.num_vec_register_writes             1518                       # number of times the vector registers were written
system.cpu01.op_class::No_OpClass                1714      0.01%      0.01% # Class of executed instruction
system.cpu01.op_class::IntAlu                11133250     66.62%     66.63% # Class of executed instruction
system.cpu01.op_class::IntMult                  27920      0.17%     66.80% # Class of executed instruction
system.cpu01.op_class::IntDiv                   12139      0.07%     66.87% # Class of executed instruction
system.cpu01.op_class::FloatAdd                     0      0.00%     66.87% # Class of executed instruction
system.cpu01.op_class::FloatCmp                     0      0.00%     66.87% # Class of executed instruction
system.cpu01.op_class::FloatCvt                     0      0.00%     66.87% # Class of executed instruction
system.cpu01.op_class::FloatMult                    0      0.00%     66.87% # Class of executed instruction
system.cpu01.op_class::FloatMultAcc                 0      0.00%     66.87% # Class of executed instruction
system.cpu01.op_class::FloatDiv                     0      0.00%     66.87% # Class of executed instruction
system.cpu01.op_class::FloatMisc                  477      0.00%     66.88% # Class of executed instruction
system.cpu01.op_class::FloatSqrt                    0      0.00%     66.88% # Class of executed instruction
system.cpu01.op_class::SimdAdd                      0      0.00%     66.88% # Class of executed instruction
system.cpu01.op_class::SimdAddAcc                   0      0.00%     66.88% # Class of executed instruction
system.cpu01.op_class::SimdAlu                      0      0.00%     66.88% # Class of executed instruction
system.cpu01.op_class::SimdCmp                      0      0.00%     66.88% # Class of executed instruction
system.cpu01.op_class::SimdCvt                      0      0.00%     66.88% # Class of executed instruction
system.cpu01.op_class::SimdMisc                     0      0.00%     66.88% # Class of executed instruction
system.cpu01.op_class::SimdMult                     0      0.00%     66.88% # Class of executed instruction
system.cpu01.op_class::SimdMultAcc                  0      0.00%     66.88% # Class of executed instruction
system.cpu01.op_class::SimdShift                    0      0.00%     66.88% # Class of executed instruction
system.cpu01.op_class::SimdShiftAcc                 0      0.00%     66.88% # Class of executed instruction
system.cpu01.op_class::SimdDiv                      0      0.00%     66.88% # Class of executed instruction
system.cpu01.op_class::SimdSqrt                     0      0.00%     66.88% # Class of executed instruction
system.cpu01.op_class::SimdFloatAdd                 0      0.00%     66.88% # Class of executed instruction
system.cpu01.op_class::SimdFloatAlu                 0      0.00%     66.88% # Class of executed instruction
system.cpu01.op_class::SimdFloatCmp                 0      0.00%     66.88% # Class of executed instruction
system.cpu01.op_class::SimdFloatCvt                 0      0.00%     66.88% # Class of executed instruction
system.cpu01.op_class::SimdFloatDiv                 0      0.00%     66.88% # Class of executed instruction
system.cpu01.op_class::SimdFloatMisc                0      0.00%     66.88% # Class of executed instruction
system.cpu01.op_class::SimdFloatMult                0      0.00%     66.88% # Class of executed instruction
system.cpu01.op_class::SimdFloatMultAcc             0      0.00%     66.88% # Class of executed instruction
system.cpu01.op_class::SimdFloatSqrt                0      0.00%     66.88% # Class of executed instruction
system.cpu01.op_class::SimdReduceAdd                0      0.00%     66.88% # Class of executed instruction
system.cpu01.op_class::SimdReduceAlu                0      0.00%     66.88% # Class of executed instruction
system.cpu01.op_class::SimdReduceCmp                0      0.00%     66.88% # Class of executed instruction
system.cpu01.op_class::SimdFloatReduceAdd            0      0.00%     66.88% # Class of executed instruction
system.cpu01.op_class::SimdFloatReduceCmp            0      0.00%     66.88% # Class of executed instruction
system.cpu01.op_class::SimdAes                      0      0.00%     66.88% # Class of executed instruction
system.cpu01.op_class::SimdAesMix                   0      0.00%     66.88% # Class of executed instruction
system.cpu01.op_class::SimdSha1Hash                 0      0.00%     66.88% # Class of executed instruction
system.cpu01.op_class::SimdSha1Hash2                0      0.00%     66.88% # Class of executed instruction
system.cpu01.op_class::SimdSha256Hash               0      0.00%     66.88% # Class of executed instruction
system.cpu01.op_class::SimdSha256Hash2              0      0.00%     66.88% # Class of executed instruction
system.cpu01.op_class::SimdShaSigma2                0      0.00%     66.88% # Class of executed instruction
system.cpu01.op_class::SimdShaSigma3                0      0.00%     66.88% # Class of executed instruction
system.cpu01.op_class::SimdPredAlu                  0      0.00%     66.88% # Class of executed instruction
system.cpu01.op_class::MemRead                3406742     20.39%     87.26% # Class of executed instruction
system.cpu01.op_class::MemWrite               2128785     12.74%    100.00% # Class of executed instruction
system.cpu01.op_class::FloatMemRead                 0      0.00%    100.00% # Class of executed instruction
system.cpu01.op_class::FloatMemWrite                0      0.00%    100.00% # Class of executed instruction
system.cpu01.op_class::IprAccess                    0      0.00%    100.00% # Class of executed instruction
system.cpu01.op_class::InstPrefetch                 0      0.00%    100.00% # Class of executed instruction
system.cpu01.op_class::total                 16711027                       # Class of executed instruction
system.cpu02.Branches                         5627996                       # Number of branches fetched
system.cpu02.committedInsts                  25857429                       # Number of instructions committed
system.cpu02.committedOps                    30432428                       # Number of ops (including micro ops) committed
system.cpu02.dtb.accesses                    10136558                       # DTB accesses
system.cpu02.dtb.align_faults                       0                       # Number of TLB faults due to alignment restrictions
system.cpu02.dtb.domain_faults                      0                       # Number of TLB faults due to domain restrictions
system.cpu02.dtb.flush_entries                   1426                       # Number of entries that have been flushed from TLB
system.cpu02.dtb.flush_tlb                         11                       # Number of times complete TLB was flushed
system.cpu02.dtb.flush_tlb_asid                   488                       # Number of times TLB was flushed by ASID
system.cpu02.dtb.flush_tlb_mva                   1467                       # Number of times TLB was flushed by MVA
system.cpu02.dtb.flush_tlb_mva_asid             57568                       # Number of times TLB was flushed by MVA & ASID
system.cpu02.dtb.hits                        10129132                       # DTB hits
system.cpu02.dtb.inst_accesses                      0                       # ITB inst accesses
system.cpu02.dtb.inst_hits                          0                       # ITB inst hits
system.cpu02.dtb.inst_misses                        0                       # ITB inst misses
system.cpu02.dtb.misses                          7426                       # DTB misses
system.cpu02.dtb.perms_faults                     457                       # Number of TLB faults due to permissions restrictions
system.cpu02.dtb.prefetch_faults                 2947                       # Number of TLB faults due to prefetch
system.cpu02.dtb.read_accesses                6050293                       # DTB read accesses
system.cpu02.dtb.read_hits                    6044388                       # DTB read hits
system.cpu02.dtb.read_misses                     5905                       # DTB read misses
system.cpu02.dtb.stage2_mmu.stage2_tlb.accesses            0                       # DTB accesses
system.cpu02.dtb.stage2_mmu.stage2_tlb.align_faults            0                       # Number of TLB faults due to alignment restrictions
system.cpu02.dtb.stage2_mmu.stage2_tlb.domain_faults            0                       # Number of TLB faults due to domain restrictions
system.cpu02.dtb.stage2_mmu.stage2_tlb.flush_entries            0                       # Number of entries that have been flushed from TLB
system.cpu02.dtb.stage2_mmu.stage2_tlb.flush_tlb            0                       # Number of times complete TLB was flushed
system.cpu02.dtb.stage2_mmu.stage2_tlb.flush_tlb_asid            0                       # Number of times TLB was flushed by ASID
system.cpu02.dtb.stage2_mmu.stage2_tlb.flush_tlb_mva            0                       # Number of times TLB was flushed by MVA
system.cpu02.dtb.stage2_mmu.stage2_tlb.flush_tlb_mva_asid            0                       # Number of times TLB was flushed by MVA & ASID
system.cpu02.dtb.stage2_mmu.stage2_tlb.hits            0                       # DTB hits
system.cpu02.dtb.stage2_mmu.stage2_tlb.inst_accesses            0                       # ITB inst accesses
system.cpu02.dtb.stage2_mmu.stage2_tlb.inst_hits            0                       # ITB inst hits
system.cpu02.dtb.stage2_mmu.stage2_tlb.inst_misses            0                       # ITB inst misses
system.cpu02.dtb.stage2_mmu.stage2_tlb.misses            0                       # DTB misses
system.cpu02.dtb.stage2_mmu.stage2_tlb.perms_faults            0                       # Number of TLB faults due to permissions restrictions
system.cpu02.dtb.stage2_mmu.stage2_tlb.prefetch_faults            0                       # Number of TLB faults due to prefetch
system.cpu02.dtb.stage2_mmu.stage2_tlb.read_accesses            0                       # DTB read accesses
system.cpu02.dtb.stage2_mmu.stage2_tlb.read_hits            0                       # DTB read hits
system.cpu02.dtb.stage2_mmu.stage2_tlb.read_misses            0                       # DTB read misses
system.cpu02.dtb.stage2_mmu.stage2_tlb.walker.walkRequestOrigin_Requested::Data            0                       # Table walker requests started/completed, data/inst
system.cpu02.dtb.stage2_mmu.stage2_tlb.walker.walkRequestOrigin_Requested::Inst            0                       # Table walker requests started/completed, data/inst
system.cpu02.dtb.stage2_mmu.stage2_tlb.walker.walkRequestOrigin_Requested::total            0                       # Table walker requests started/completed, data/inst
system.cpu02.dtb.stage2_mmu.stage2_tlb.walker.walkRequestOrigin_Completed::Data            0                       # Table walker requests started/completed, data/inst
system.cpu02.dtb.stage2_mmu.stage2_tlb.walker.walkRequestOrigin_Completed::Inst            0                       # Table walker requests started/completed, data/inst
system.cpu02.dtb.stage2_mmu.stage2_tlb.walker.walkRequestOrigin_Completed::total            0                       # Table walker requests started/completed, data/inst
system.cpu02.dtb.stage2_mmu.stage2_tlb.walker.walkRequestOrigin::total            0                       # Table walker requests started/completed, data/inst
system.cpu02.dtb.stage2_mmu.stage2_tlb.walker.walks            0                       # Table walker walks requested
system.cpu02.dtb.stage2_mmu.stage2_tlb.write_accesses            0                       # DTB write accesses
system.cpu02.dtb.stage2_mmu.stage2_tlb.write_hits            0                       # DTB write hits
system.cpu02.dtb.stage2_mmu.stage2_tlb.write_misses            0                       # DTB write misses
system.cpu02.dtb.walker.walkPageSizes::4K         6347     96.69%     96.69% # Table walker page sizes translated
system.cpu02.dtb.walker.walkPageSizes::2M          173      2.64%     99.33% # Table walker page sizes translated
system.cpu02.dtb.walker.walkPageSizes::1G           44      0.67%    100.00% # Table walker page sizes translated
system.cpu02.dtb.walker.walkPageSizes::total         6564                       # Table walker page sizes translated
system.cpu02.dtb.walker.walkRequestOrigin_Requested::Data         7426                       # Table walker requests started/completed, data/inst
system.cpu02.dtb.walker.walkRequestOrigin_Requested::Inst            0                       # Table walker requests started/completed, data/inst
system.cpu02.dtb.walker.walkRequestOrigin_Requested::total         7426                       # Table walker requests started/completed, data/inst
system.cpu02.dtb.walker.walkRequestOrigin_Completed::Data         6564                       # Table walker requests started/completed, data/inst
system.cpu02.dtb.walker.walkRequestOrigin_Completed::Inst            0                       # Table walker requests started/completed, data/inst
system.cpu02.dtb.walker.walkRequestOrigin_Completed::total         6564                       # Table walker requests started/completed, data/inst
system.cpu02.dtb.walker.walkRequestOrigin::total        13990                       # Table walker requests started/completed, data/inst
system.cpu02.dtb.walker.walkWaitTime::samples         7426                       # Table walker wait (enqueue to first request) latency
system.cpu02.dtb.walker.walkWaitTime::0          7426    100.00%    100.00% # Table walker wait (enqueue to first request) latency
system.cpu02.dtb.walker.walkWaitTime::total         7426                       # Table walker wait (enqueue to first request) latency
system.cpu02.dtb.walker.walks                    7426                       # Table walker walks requested
system.cpu02.dtb.walker.walksLong                7426                       # Table walker walks initiated with long descriptors
system.cpu02.dtb.walker.walksPending::samples   1908842720                       # Table walker pending requests distribution
system.cpu02.dtb.walker.walksPending::0    1908842720    100.00%    100.00% # Table walker pending requests distribution
system.cpu02.dtb.walker.walksPending::total   1908842720                       # Table walker pending requests distribution
system.cpu02.dtb.write_accesses               4086265                       # DTB write accesses
system.cpu02.dtb.write_hits                   4084744                       # DTB write hits
system.cpu02.dtb.write_misses                    1521                       # DTB write misses
system.cpu02.idle_fraction                   0.987421                       # Percentage of idle cycles
system.cpu02.itb.accesses                    25859476                       # DTB accesses
system.cpu02.itb.align_faults                       0                       # Number of TLB faults due to alignment restrictions
system.cpu02.itb.domain_faults                      0                       # Number of TLB faults due to domain restrictions
system.cpu02.itb.flush_entries                    904                       # Number of entries that have been flushed from TLB
system.cpu02.itb.flush_tlb                         11                       # Number of times complete TLB was flushed
system.cpu02.itb.flush_tlb_asid                   488                       # Number of times TLB was flushed by ASID
system.cpu02.itb.flush_tlb_mva                   1467                       # Number of times TLB was flushed by MVA
system.cpu02.itb.flush_tlb_mva_asid             57568                       # Number of times TLB was flushed by MVA & ASID
system.cpu02.itb.hits                        25832514                       # DTB hits
system.cpu02.itb.inst_accesses               25859476                       # ITB inst accesses
system.cpu02.itb.inst_hits                   25832514                       # ITB inst hits
system.cpu02.itb.inst_misses                    26962                       # ITB inst misses
system.cpu02.itb.misses                         26962                       # DTB misses
system.cpu02.itb.perms_faults                       0                       # Number of TLB faults due to permissions restrictions
system.cpu02.itb.prefetch_faults                    0                       # Number of TLB faults due to prefetch
system.cpu02.itb.read_accesses                      0                       # DTB read accesses
system.cpu02.itb.read_hits                          0                       # DTB read hits
system.cpu02.itb.read_misses                        0                       # DTB read misses
system.cpu02.itb.stage2_mmu.stage2_tlb.accesses            0                       # DTB accesses
system.cpu02.itb.stage2_mmu.stage2_tlb.align_faults            0                       # Number of TLB faults due to alignment restrictions
system.cpu02.itb.stage2_mmu.stage2_tlb.domain_faults            0                       # Number of TLB faults due to domain restrictions
system.cpu02.itb.stage2_mmu.stage2_tlb.flush_entries            0                       # Number of entries that have been flushed from TLB
system.cpu02.itb.stage2_mmu.stage2_tlb.flush_tlb            0                       # Number of times complete TLB was flushed
system.cpu02.itb.stage2_mmu.stage2_tlb.flush_tlb_asid            0                       # Number of times TLB was flushed by ASID
system.cpu02.itb.stage2_mmu.stage2_tlb.flush_tlb_mva            0                       # Number of times TLB was flushed by MVA
system.cpu02.itb.stage2_mmu.stage2_tlb.flush_tlb_mva_asid            0                       # Number of times TLB was flushed by MVA & ASID
system.cpu02.itb.stage2_mmu.stage2_tlb.hits            0                       # DTB hits
system.cpu02.itb.stage2_mmu.stage2_tlb.inst_accesses            0                       # ITB inst accesses
system.cpu02.itb.stage2_mmu.stage2_tlb.inst_hits            0                       # ITB inst hits
system.cpu02.itb.stage2_mmu.stage2_tlb.inst_misses            0                       # ITB inst misses
system.cpu02.itb.stage2_mmu.stage2_tlb.misses            0                       # DTB misses
system.cpu02.itb.stage2_mmu.stage2_tlb.perms_faults            0                       # Number of TLB faults due to permissions restrictions
system.cpu02.itb.stage2_mmu.stage2_tlb.prefetch_faults            0                       # Number of TLB faults due to prefetch
system.cpu02.itb.stage2_mmu.stage2_tlb.read_accesses            0                       # DTB read accesses
system.cpu02.itb.stage2_mmu.stage2_tlb.read_hits            0                       # DTB read hits
system.cpu02.itb.stage2_mmu.stage2_tlb.read_misses            0                       # DTB read misses
system.cpu02.itb.stage2_mmu.stage2_tlb.walker.walkRequestOrigin_Requested::Data            0                       # Table walker requests started/completed, data/inst
system.cpu02.itb.stage2_mmu.stage2_tlb.walker.walkRequestOrigin_Requested::Inst            0                       # Table walker requests started/completed, data/inst
system.cpu02.itb.stage2_mmu.stage2_tlb.walker.walkRequestOrigin_Requested::total            0                       # Table walker requests started/completed, data/inst
system.cpu02.itb.stage2_mmu.stage2_tlb.walker.walkRequestOrigin_Completed::Data            0                       # Table walker requests started/completed, data/inst
system.cpu02.itb.stage2_mmu.stage2_tlb.walker.walkRequestOrigin_Completed::Inst            0                       # Table walker requests started/completed, data/inst
system.cpu02.itb.stage2_mmu.stage2_tlb.walker.walkRequestOrigin_Completed::total            0                       # Table walker requests started/completed, data/inst
system.cpu02.itb.stage2_mmu.stage2_tlb.walker.walkRequestOrigin::total            0                       # Table walker requests started/completed, data/inst
system.cpu02.itb.stage2_mmu.stage2_tlb.walker.walks            0                       # Table walker walks requested
system.cpu02.itb.stage2_mmu.stage2_tlb.write_accesses            0                       # DTB write accesses
system.cpu02.itb.stage2_mmu.stage2_tlb.write_hits            0                       # DTB write hits
system.cpu02.itb.stage2_mmu.stage2_tlb.write_misses            0                       # DTB write misses
system.cpu02.itb.walker.walkPageSizes::4K        26550     99.56%     99.56% # Table walker page sizes translated
system.cpu02.itb.walker.walkPageSizes::2M          118      0.44%    100.00% # Table walker page sizes translated
system.cpu02.itb.walker.walkPageSizes::total        26668                       # Table walker page sizes translated
system.cpu02.itb.walker.walkRequestOrigin_Requested::Data            0                       # Table walker requests started/completed, data/inst
system.cpu02.itb.walker.walkRequestOrigin_Requested::Inst        26962                       # Table walker requests started/completed, data/inst
system.cpu02.itb.walker.walkRequestOrigin_Requested::total        26962                       # Table walker requests started/completed, data/inst
system.cpu02.itb.walker.walkRequestOrigin_Completed::Data            0                       # Table walker requests started/completed, data/inst
system.cpu02.itb.walker.walkRequestOrigin_Completed::Inst        26668                       # Table walker requests started/completed, data/inst
system.cpu02.itb.walker.walkRequestOrigin_Completed::total        26668                       # Table walker requests started/completed, data/inst
system.cpu02.itb.walker.walkRequestOrigin::total        53630                       # Table walker requests started/completed, data/inst
system.cpu02.itb.walker.walkWaitTime::samples        26962                       # Table walker wait (enqueue to first request) latency
system.cpu02.itb.walker.walkWaitTime::0         26962    100.00%    100.00% # Table walker wait (enqueue to first request) latency
system.cpu02.itb.walker.walkWaitTime::total        26962                       # Table walker wait (enqueue to first request) latency
system.cpu02.itb.walker.walks                   26962                       # Table walker walks requested
system.cpu02.itb.walker.walksLong               26962                       # Table walker walks initiated with long descriptors
system.cpu02.itb.walker.walksPending::samples   1908834820                       # Table walker pending requests distribution
system.cpu02.itb.walker.walksPending::0    1908834820    100.00%    100.00% # Table walker pending requests distribution
system.cpu02.itb.walker.walksPending::total   1908834820                       # Table walker pending requests distribution
system.cpu02.itb.write_accesses                     0                       # DTB write accesses
system.cpu02.itb.write_hits                         0                       # DTB write hits
system.cpu02.itb.write_misses                       0                       # DTB write misses
system.cpu02.kern.inst.arm                          0                       # number of arm instructions executed
system.cpu02.kern.inst.quiesce                   2180                       # number of quiesce instructions executed
system.cpu02.not_idle_fraction               0.012579                       # Percentage of non-idle cycles
system.cpu02.numCycles                     2416910217                       # number of cpu cycles simulated
system.cpu02.numWorkItemsCompleted                  0                       # number of work items this cpu completed
system.cpu02.numWorkItemsStarted                    0                       # number of work items this cpu started
system.cpu02.num_busy_cycles             30403222.039600                       # Number of busy cycles
system.cpu02.num_cc_register_reads            7623390                       # number of times the CC registers were read
system.cpu02.num_cc_register_writes           5924754                       # number of times the CC registers were written
system.cpu02.num_conditional_control_insts      3833891                       # number of instructions that are conditional controls
system.cpu02.num_fp_alu_accesses                    0                       # Number of float alu accesses
system.cpu02.num_fp_insts                           0                       # number of float instructions
system.cpu02.num_fp_register_reads                  0                       # number of times the floating registers were read
system.cpu02.num_fp_register_writes                 0                       # number of times the floating registers were written
system.cpu02.num_func_calls                   1548722                       # number of times a function call or return occured
system.cpu02.num_idle_cycles             2386506994.960400                       # Number of idle cycles
system.cpu02.num_int_alu_accesses            27818143                       # Number of integer alu accesses
system.cpu02.num_int_insts                   27818143                       # number of integer instructions
system.cpu02.num_int_register_reads          36812295                       # number of times the integer registers were read
system.cpu02.num_int_register_writes         22182096                       # number of times the integer registers were written
system.cpu02.num_load_insts                   6039585                       # Number of load instructions
system.cpu02.num_mem_refs                    10125659                       # number of memory refs
system.cpu02.num_store_insts                  4086074                       # Number of store instructions
system.cpu02.num_vec_alu_accesses               11108                       # Number of vector alu accesses
system.cpu02.num_vec_insts                      11108                       # number of vector instructions
system.cpu02.num_vec_register_reads              9272                       # number of times the vector registers were read
system.cpu02.num_vec_register_writes             1888                       # number of times the vector registers were written
system.cpu02.op_class::No_OpClass                5115      0.02%      0.02% # Class of executed instruction
system.cpu02.op_class::IntAlu                20226037     66.46%     66.47% # Class of executed instruction
system.cpu02.op_class::IntMult                  62493      0.21%     66.68% # Class of executed instruction
system.cpu02.op_class::IntDiv                   15493      0.05%     66.73% # Class of executed instruction
system.cpu02.op_class::FloatAdd                     0      0.00%     66.73% # Class of executed instruction
system.cpu02.op_class::FloatCmp                     0      0.00%     66.73% # Class of executed instruction
system.cpu02.op_class::FloatCvt                     0      0.00%     66.73% # Class of executed instruction
system.cpu02.op_class::FloatMult                    0      0.00%     66.73% # Class of executed instruction
system.cpu02.op_class::FloatMultAcc                 0      0.00%     66.73% # Class of executed instruction
system.cpu02.op_class::FloatDiv                     0      0.00%     66.73% # Class of executed instruction
system.cpu02.op_class::FloatMisc                  136      0.00%     66.73% # Class of executed instruction
system.cpu02.op_class::FloatSqrt                    0      0.00%     66.73% # Class of executed instruction
system.cpu02.op_class::SimdAdd                      0      0.00%     66.73% # Class of executed instruction
system.cpu02.op_class::SimdAddAcc                   0      0.00%     66.73% # Class of executed instruction
system.cpu02.op_class::SimdAlu                      0      0.00%     66.73% # Class of executed instruction
system.cpu02.op_class::SimdCmp                      0      0.00%     66.73% # Class of executed instruction
system.cpu02.op_class::SimdCvt                      0      0.00%     66.73% # Class of executed instruction
system.cpu02.op_class::SimdMisc                     0      0.00%     66.73% # Class of executed instruction
system.cpu02.op_class::SimdMult                     0      0.00%     66.73% # Class of executed instruction
system.cpu02.op_class::SimdMultAcc                  0      0.00%     66.73% # Class of executed instruction
system.cpu02.op_class::SimdShift                    0      0.00%     66.73% # Class of executed instruction
system.cpu02.op_class::SimdShiftAcc                 0      0.00%     66.73% # Class of executed instruction
system.cpu02.op_class::SimdDiv                      0      0.00%     66.73% # Class of executed instruction
system.cpu02.op_class::SimdSqrt                     0      0.00%     66.73% # Class of executed instruction
system.cpu02.op_class::SimdFloatAdd                 0      0.00%     66.73% # Class of executed instruction
system.cpu02.op_class::SimdFloatAlu                 0      0.00%     66.73% # Class of executed instruction
system.cpu02.op_class::SimdFloatCmp                 0      0.00%     66.73% # Class of executed instruction
system.cpu02.op_class::SimdFloatCvt                 0      0.00%     66.73% # Class of executed instruction
system.cpu02.op_class::SimdFloatDiv                 0      0.00%     66.73% # Class of executed instruction
system.cpu02.op_class::SimdFloatMisc                0      0.00%     66.73% # Class of executed instruction
system.cpu02.op_class::SimdFloatMult                0      0.00%     66.73% # Class of executed instruction
system.cpu02.op_class::SimdFloatMultAcc             0      0.00%     66.73% # Class of executed instruction
system.cpu02.op_class::SimdFloatSqrt                0      0.00%     66.73% # Class of executed instruction
system.cpu02.op_class::SimdReduceAdd                0      0.00%     66.73% # Class of executed instruction
system.cpu02.op_class::SimdReduceAlu                0      0.00%     66.73% # Class of executed instruction
system.cpu02.op_class::SimdReduceCmp                0      0.00%     66.73% # Class of executed instruction
system.cpu02.op_class::SimdFloatReduceAdd            0      0.00%     66.73% # Class of executed instruction
system.cpu02.op_class::SimdFloatReduceCmp            0      0.00%     66.73% # Class of executed instruction
system.cpu02.op_class::SimdAes                      0      0.00%     66.73% # Class of executed instruction
system.cpu02.op_class::SimdAesMix                   0      0.00%     66.73% # Class of executed instruction
system.cpu02.op_class::SimdSha1Hash                 0      0.00%     66.73% # Class of executed instruction
system.cpu02.op_class::SimdSha1Hash2                0      0.00%     66.73% # Class of executed instruction
system.cpu02.op_class::SimdSha256Hash               0      0.00%     66.73% # Class of executed instruction
system.cpu02.op_class::SimdSha256Hash2              0      0.00%     66.73% # Class of executed instruction
system.cpu02.op_class::SimdShaSigma2                0      0.00%     66.73% # Class of executed instruction
system.cpu02.op_class::SimdShaSigma3                0      0.00%     66.73% # Class of executed instruction
system.cpu02.op_class::SimdPredAlu                  0      0.00%     66.73% # Class of executed instruction
system.cpu02.op_class::MemRead                6039585     19.84%     86.57% # Class of executed instruction
system.cpu02.op_class::MemWrite               4086074     13.43%    100.00% # Class of executed instruction
system.cpu02.op_class::FloatMemRead                 0      0.00%    100.00% # Class of executed instruction
system.cpu02.op_class::FloatMemWrite                0      0.00%    100.00% # Class of executed instruction
system.cpu02.op_class::IprAccess                    0      0.00%    100.00% # Class of executed instruction
system.cpu02.op_class::InstPrefetch                 0      0.00%    100.00% # Class of executed instruction
system.cpu02.op_class::total                 30434933                       # Class of executed instruction
system.cpu03.Branches                         2036730                       # Number of branches fetched
[...]
system.iobus.pkt_size_system.pci_ide.dma::total     16389008                       # Cumulative packet size per connected master and slave (bytes)
system.iobus.pkt_size::total                 16529207                       # Cumulative packet size per connected master and slave (bytes)
system.cpu54.numPwrStateTransitions              2648                       # Number of power state transitions
system.cpu54.pwrStateClkGateDist::samples         1307                       # Distribution of time spent in the clock gated state
system.cpu54.pwrStateClkGateDist::mean   2907368173.342770                       # Distribution of time spent in the clock gated state
system.cpu54.pwrStateClkGateDist::stdev  22032165227.215420                       # Distribution of time spent in the clock gated state
system.cpu54.pwrStateClkGateDist::1000-5e+10         1304     99.77%     99.77% # Distribution of time spent in the clock gated state
system.cpu54.pwrStateClkGateDist::5e+10-1e+11            1      0.08%     99.85% # Distribution of time spent in the clock gated state
system.cpu54.pwrStateClkGateDist::3.5e+11-4e+11            1      0.08%     99.92% # Distribution of time spent in the clock gated state
system.cpu54.pwrStateClkGateDist::6.5e+11-7e+11            1      0.08%    100.00% # Distribution of time spent in the clock gated state
system.cpu54.pwrStateClkGateDist::min_value         1580                       # Distribution of time spent in the clock gated state
system.cpu54.pwrStateClkGateDist::max_value 664538595840                       # Distribution of time spent in the clock gated state
system.cpu54.pwrStateClkGateDist::total          1307                       # Distribution of time spent in the clock gated state
system.cpu54.pwrStateResidencyTicks::ON   22711298341                       # Cumulative time (in ticks) in various power states
system.cpu54.pwrStateResidencyTicks::CLK_GATED 3799930202559                       # Cumulative time (in ticks) in various power states
system.cpu54.icache.pwrStateResidencyTicks::UNDEFINED 3822641500900                       # Cumulative time (in ticks) in various power states
system.cpu54.icache.demand_hits::.cpu54.inst     12187510                       # number of demand (read+write) hits
system.cpu54.icache.demand_hits::total       12187510                       # number of demand (read+write) hits
system.cpu54.icache.overall_hits::.cpu54.inst     12187510                       # number of overall hits
system.cpu54.icache.overall_hits::total      12187510                       # number of overall hits
system.cpu54.icache.demand_misses::.cpu54.inst       158747                       # number of demand (read+write) misses
system.cpu54.icache.demand_misses::total       158747                       # number of demand (read+write) misses
system.cpu54.icache.overall_misses::.cpu54.inst       158747                       # number of overall misses
system.cpu54.icache.overall_misses::total       158747                       # number of overall misses
system.cpu54.icache.demand_accesses::.cpu54.inst     12346257                       # number of demand (read+write) accesses
system.cpu54.icache.demand_accesses::total     12346257                       # number of demand (read+write) accesses
system.cpu54.icache.overall_accesses::.cpu54.inst     12346257                       # number of overall (read+write) accesses
system.cpu54.icache.overall_accesses::total     12346257                       # number of overall (read+write) accesses
system.cpu54.icache.demand_miss_rate::.cpu54.inst     0.012858                       # miss rate for demand accesses
system.cpu54.icache.demand_miss_rate::total     0.012858                       # miss rate for demand accesses
system.cpu54.icache.overall_miss_rate::.cpu54.inst     0.012858                       # miss rate for overall accesses
system.cpu54.icache.overall_miss_rate::total     0.012858                       # miss rate for overall accesses
system.cpu54.icache.blocked_cycles::no_mshrs            0                       # number of cycles access was blocked
system.cpu54.icache.blocked_cycles::no_targets            0                       # number of cycles access was blocked
system.cpu54.icache.blocked::no_mshrs               0                       # number of cycles access was blocked
system.cpu54.icache.blocked::no_targets             0                       # number of cycles access was blocked
system.cpu54.icache.avg_blocked_cycles::no_mshrs          nan                       # average number of cycles each access was blocked
system.cpu54.icache.avg_blocked_cycles::no_targets          nan                       # average number of cycles each access was blocked
system.cpu54.icache.writebacks::.writebacks       158224                       # number of writebacks
system.cpu54.icache.writebacks::total          158224                       # number of writebacks
system.cpu54.icache.replacements               158224                       # number of replacements
system.cpu54.icache.ReadReq_hits::.cpu54.inst     12187510                       # number of ReadReq hits
system.cpu54.icache.ReadReq_hits::total      12187510                       # number of ReadReq hits
system.cpu54.icache.ReadReq_misses::.cpu54.inst       158747                       # number of ReadReq misses
system.cpu54.icache.ReadReq_misses::total       158747                       # number of ReadReq misses
system.cpu54.icache.ReadReq_accesses::.cpu54.inst     12346257                       # number of ReadReq accesses(hits+misses)
system.cpu54.icache.ReadReq_accesses::total     12346257                       # number of ReadReq accesses(hits+misses)
system.cpu54.icache.ReadReq_miss_rate::.cpu54.inst     0.012858                       # miss rate for ReadReq accesses
system.cpu54.icache.ReadReq_miss_rate::total     0.012858                       # miss rate for ReadReq accesses
system.cpu54.icache.tags.pwrStateResidencyTicks::UNDEFINED 3822641500900                       # Cumulative time (in ticks) in various power states
system.cpu54.icache.tags.tagsinuse         182.416586                       # Cycle average of tags in use
system.cpu54.icache.tags.total_refs          12346257                       # Total number of references to valid blocks.
system.cpu54.icache.tags.sampled_refs          158747                       # Sample count of references to valid blocks.
system.cpu54.icache.tags.avg_refs           77.773167                       # Average number of references to valid blocks.
system.cpu54.icache.tags.warmup_cycle    2442717370160                       # Cycle when the warmup percentage was hit.
system.cpu54.icache.tags.occ_blocks::.cpu54.inst   182.416586                       # Average occupied blocks per requestor
system.cpu54.icache.tags.occ_percent::.cpu54.inst     0.356282                       # Average percentage of cache occupancy
system.cpu54.icache.tags.occ_percent::total     0.356282                       # Average percentage of cache occupancy
system.cpu54.icache.tags.occ_task_id_blocks::1024          512                       # Occupied blocks per task id
system.cpu54.icache.tags.age_task_id_blocks_1024::3           41                       # Occupied blocks per task id
system.cpu54.icache.tags.age_task_id_blocks_1024::4          471                       # Occupied blocks per task id
system.cpu54.icache.tags.occ_task_id_percent::1024            1                       # Percentage of cache occupancy per task id
system.cpu54.icache.tags.tag_accesses        24851261                       # Number of tag accesses
system.cpu54.icache.tags.data_accesses       24851261                       # Number of data accesses
system.cpu54.dtb.walker.pwrStateResidencyTicks::UNDEFINED 3822641500900                       # Cumulative time (in ticks) in various power states
system.cpu54.dtb.stage2_mmu.stage2_tlb.walker.pwrStateResidencyTicks::UNDEFINED 3822641500900                       # Cumulative time (in ticks) in various power states
system.cpu54.itb.walker.pwrStateResidencyTicks::UNDEFINED 3822641500900                       # Cumulative time (in ticks) in various power states
system.cpu54.itb.stage2_mmu.stage2_tlb.walker.pwrStateResidencyTicks::UNDEFINED 3822641500900                       # Cumulative time (in ticks) in various power states
system.cpu54.dcache.pwrStateResidencyTicks::UNDEFINED 3822641500900                       # Cumulative time (in ticks) in various power states
system.cpu54.dcache.demand_hits::.cpu54.data      4428209                       # number of demand (read+write) hits
system.cpu54.dcache.demand_hits::total        4428209                       # number of demand (read+write) hits
system.cpu54.dcache.overall_hits::.cpu54.data      4468656                       # number of overall hits
system.cpu54.dcache.overall_hits::total       4468656                       # number of overall hits
system.cpu54.dcache.demand_misses::.cpu54.data       140802                       # number of demand (read+write) misses
system.cpu54.dcache.demand_misses::total       140802                       # number of demand (read+write) misses
system.cpu54.dcache.overall_misses::.cpu54.data       147560                       # number of overall misses
system.cpu54.dcache.overall_misses::total       147560                       # number of overall misses
system.cpu54.dcache.demand_accesses::.cpu54.data      4569011                       # number of demand (read+write) accesses
system.cpu54.dcache.demand_accesses::total      4569011                       # number of demand (read+write) accesses
system.cpu54.dcache.overall_accesses::.cpu54.data      4616216                       # number of overall (read+write) accesses
system.cpu54.dcache.overall_accesses::total      4616216                       # number of overall (read+write) accesses
system.cpu54.dcache.demand_miss_rate::.cpu54.data     0.030817                       # miss rate for demand accesses
system.cpu54.dcache.demand_miss_rate::total     0.030817                       # miss rate for demand accesses
system.cpu54.dcache.overall_miss_rate::.cpu54.data     0.031966                       # miss rate for overall accesses
system.cpu54.dcache.overall_miss_rate::total     0.031966                       # miss rate for overall accesses
system.cpu54.dcache.blocked_cycles::no_mshrs            0                       # number of cycles access was blocked
system.cpu54.dcache.blocked_cycles::no_targets            0                       # number of cycles access was blocked
system.cpu54.dcache.blocked::no_mshrs               0                       # number of cycles access was blocked
system.cpu54.dcache.blocked::no_targets             0                       # number of cycles access was blocked
system.cpu54.dcache.avg_blocked_cycles::no_mshrs          nan                       # average number of cycles each access was blocked
system.cpu54.dcache.avg_blocked_cycles::no_targets          nan                       # average number of cycles each access was blocked
system.cpu54.dcache.writebacks::.writebacks        53524                       # number of writebacks
system.cpu54.dcache.writebacks::total           53524                       # number of writebacks
system.cpu54.dcache.replacements               124409                       # number of replacements
system.cpu54.dcache.ReadReq_hits::.cpu54.data      2730741                       # number of ReadReq hits
system.cpu54.dcache.ReadReq_hits::total       2730741                       # number of ReadReq hits
system.cpu54.dcache.ReadReq_misses::.cpu54.data        96338                       # number of ReadReq misses
system.cpu54.dcache.ReadReq_misses::total        96338                       # number of ReadReq misses
system.cpu54.dcache.ReadReq_accesses::.cpu54.data      2827079                       # number of ReadReq accesses(hits+misses)
system.cpu54.dcache.ReadReq_accesses::total      2827079                       # number of ReadReq accesses(hits+misses)
system.cpu54.dcache.ReadReq_miss_rate::.cpu54.data     0.034077                       # miss rate for ReadReq accesses
system.cpu54.dcache.ReadReq_miss_rate::total     0.034077                       # miss rate for ReadReq accesses
system.cpu54.dcache.WriteReq_hits::.cpu54.data      1696460                       # number of WriteReq hits
system.cpu54.dcache.WriteReq_hits::total      1696460                       # number of WriteReq hits
system.cpu54.dcache.WriteReq_misses::.cpu54.data        28627                       # number of WriteReq misses
system.cpu54.dcache.WriteReq_misses::total        28627                       # number of WriteReq misses
system.cpu54.dcache.WriteReq_accesses::.cpu54.data      1725087                       # number of WriteReq accesses(hits+misses)
system.cpu54.dcache.WriteReq_accesses::total      1725087                       # number of WriteReq accesses(hits+misses)
system.cpu54.dcache.WriteReq_miss_rate::.cpu54.data     0.016595                       # miss rate for WriteReq accesses
system.cpu54.dcache.WriteReq_miss_rate::total     0.016595                       # miss rate for WriteReq accesses
system.cpu54.dcache.SoftPFReq_hits::.cpu54.data          397                       # number of SoftPFReq hits
system.cpu54.dcache.SoftPFReq_hits::total          397                       # number of SoftPFReq hits
system.cpu54.dcache.SoftPFReq_misses::.cpu54.data          810                       # number of SoftPFReq misses
system.cpu54.dcache.SoftPFReq_misses::total          810                       # number of SoftPFReq misses
system.cpu54.dcache.SoftPFReq_accesses::.cpu54.data         1207                       # number of SoftPFReq accesses(hits+misses)
system.cpu54.dcache.SoftPFReq_accesses::total         1207                       # number of SoftPFReq accesses(hits+misses)
system.cpu54.dcache.SoftPFReq_miss_rate::.cpu54.data     0.671085                       # miss rate for SoftPFReq accesses
system.cpu54.dcache.SoftPFReq_miss_rate::total     0.671085                       # miss rate for SoftPFReq accesses
system.cpu54.dcache.SoftPFExReq_hits::.cpu54.data        40050                       # number of SoftPFExReq hits
system.cpu54.dcache.SoftPFExReq_hits::total        40050                       # number of SoftPFExReq hits
system.cpu54.dcache.SoftPFExReq_misses::.cpu54.data         5948                       # number of SoftPFExReq misses
system.cpu54.dcache.SoftPFExReq_misses::total         5948                       # number of SoftPFExReq misses
system.cpu54.dcache.SoftPFExReq_accesses::.cpu54.data        45998                       # number of SoftPFExReq accesses(hits+misses)
system.cpu54.dcache.SoftPFExReq_accesses::total        45998                       # number of SoftPFExReq accesses(hits+misses)
system.cpu54.dcache.SoftPFExReq_miss_rate::.cpu54.data     0.129310                       # miss rate for SoftPFExReq accesses
system.cpu54.dcache.SoftPFExReq_miss_rate::total     0.129310                       # miss rate for SoftPFExReq accesses
system.cpu54.dcache.WriteLineReq_hits::.cpu54.data         1008                       # number of WriteLineReq hits
system.cpu54.dcache.WriteLineReq_hits::total         1008                       # number of WriteLineReq hits
system.cpu54.dcache.WriteLineReq_misses::.cpu54.data        15837                       # number of WriteLineReq misses
system.cpu54.dcache.WriteLineReq_misses::total        15837                       # number of WriteLineReq misses
system.cpu54.dcache.WriteLineReq_accesses::.cpu54.data        16845                       # number of WriteLineReq accesses(hits+misses)
system.cpu54.dcache.WriteLineReq_accesses::total        16845                       # number of WriteLineReq accesses(hits+misses)
system.cpu54.dcache.WriteLineReq_miss_rate::.cpu54.data     0.940160                       # miss rate for WriteLineReq accesses
system.cpu54.dcache.WriteLineReq_miss_rate::total     0.940160                       # miss rate for WriteLineReq accesses
system.cpu54.dcache.LoadLockedReq_hits::.cpu54.data        48973                       # number of LoadLockedReq hits
system.cpu54.dcache.LoadLockedReq_hits::total        48973                       # number of LoadLockedReq hits
system.cpu54.dcache.LoadLockedReq_misses::.cpu54.data         1233                       # number of LoadLockedReq misses
system.cpu54.dcache.LoadLockedReq_misses::total         1233                       # number of LoadLockedReq misses
system.cpu54.dcache.LoadLockedReq_accesses::.cpu54.data        50206                       # number of LoadLockedReq accesses(hits+misses)
system.cpu54.dcache.LoadLockedReq_accesses::total        50206                       # number of LoadLockedReq accesses(hits+misses)
system.cpu54.dcache.LoadLockedReq_miss_rate::.cpu54.data     0.024559                       # miss rate for LoadLockedReq accesses
system.cpu54.dcache.LoadLockedReq_miss_rate::total     0.024559                       # miss rate for LoadLockedReq accesses
system.cpu54.dcache.StoreCondReq_hits::.cpu54.data        48921                       # number of StoreCondReq hits
system.cpu54.dcache.StoreCondReq_hits::total        48921                       # number of StoreCondReq hits
system.cpu54.dcache.StoreCondReq_misses::.cpu54.data          185                       # number of StoreCondReq misses
system.cpu54.dcache.StoreCondReq_misses::total          185                       # number of StoreCondReq misses
system.cpu54.dcache.StoreCondReq_accesses::.cpu54.data        49106                       # number of StoreCondReq accesses(hits+misses)
system.cpu54.dcache.StoreCondReq_accesses::total        49106                       # number of StoreCondReq accesses(hits+misses)
system.cpu54.dcache.StoreCondReq_miss_rate::.cpu54.data     0.003767                       # miss rate for StoreCondReq accesses
system.cpu54.dcache.StoreCondReq_miss_rate::total     0.003767                       # miss rate for StoreCondReq accesses
system.cpu54.dcache.tags.pwrStateResidencyTicks::UNDEFINED 3822641500900                       # Cumulative time (in ticks) in various power states
system.cpu54.dcache.tags.tagsinuse         263.931351                       # Cycle average of tags in use
system.cpu54.dcache.tags.total_refs           4730803                       # Total number of references to valid blocks.
system.cpu54.dcache.tags.sampled_refs          139401                       # Sample count of references to valid blocks.
system.cpu54.dcache.tags.avg_refs           33.936650                       # Average number of references to valid blocks.
system.cpu54.dcache.tags.warmup_cycle    2442717378060                       # Cycle when the warmup percentage was hit.
system.cpu54.dcache.tags.occ_blocks::.cpu54.data   263.931351                       # Average occupied blocks per requestor
system.cpu54.dcache.tags.occ_percent::.cpu54.data     0.257745                       # Average percentage of cache occupancy
system.cpu54.dcache.tags.occ_percent::total     0.257745                       # Average percentage of cache occupancy
system.cpu54.dcache.tags.occ_task_id_blocks::1024          756                       # Occupied blocks per task id
system.cpu54.dcache.tags.age_task_id_blocks_1024::3            8                       # Occupied blocks per task id
system.cpu54.dcache.tags.age_task_id_blocks_1024::4          748                       # Occupied blocks per task id
system.cpu54.dcache.tags.occ_task_id_percent::1024     0.738281                       # Percentage of cache occupancy per task id
system.cpu54.dcache.tags.tag_accesses         9601565                       # Number of tag accesses
system.cpu54.dcache.tags.data_accesses        9601565                       # Number of data accesses

---------- End Simulation Statistics   ----------
